<?xml version="1.0" encoding="UTF-8"?>

<!-- generated on 2024-10-19 07:28:50.628731 by osmWebWizard.py v1_21_0+0000-d7b3b481c43
<configuration>
    <net-file value="C:\Users\manut\Sumo\2024-10-19-07-28-43\osm.net.xml.gz"/>
    <output-trip-file value="C:\Users\manut\Sumo\2024-10-19-07-28-43\osm.motorcycle.trips.xml"/>
    <route-file value="C:\Users\manut\Sumo\2024-10-19-07-28-43\osm.motorcycle.rou.xml"/>
    <prefix value="motorcycle"/>
    <trip-attributes value="departLane=&quot;best&quot;"/>
    <fringe-start-attributes value="departSpeed=&quot;max&quot;"/>
    <vehicle-class value="motorcycle"/>
    <fringe-factor value="2"/>
    <vclass value="motorcycle"/>
    <via-edge-types value="highway.motorway,highway.motorway_link,highway.trunk_link,highway.primary_link,highway.secondary_link,highway.tertiary_link"/>
    <max-distance value="1200.0"/>
    <remove-loops value="True"/>
    <validate value="True"/>
    <insertion-density value="10.0"/>
</configuration>
-->

<!-- generated on 2024-10-19 07:28:50 by Eclipse SUMO duarouter Version 1.21.0
<duarouterConfiguration xmlns:xsi="http://www.w3.org/2001/XMLSchema-instance" xsi:noNamespaceSchemaLocation="http://sumo.dlr.de/xsd/duarouterConfiguration.xsd">

    <input>
        <net-file value="C:\Users\manut\Sumo\2024-10-19-07-28-43\osm.net.xml.gz"/>
        <route-files value="C:\Users\manut\Sumo\2024-10-19-07-28-43\osm.motorcycle.trips.xml"/>
    </input>

    <output>
        <output-file value="C:\Users\manut\Sumo\2024-10-19-07-28-43\osm.motorcycle.trips.xml.tmp"/>
        <alternatives-output value="NUL"/>
        <write-trips value="true"/>
    </output>

    <processing>
        <remove-loops value="true"/>
    </processing>

    <time>
        <begin value="0.0"/>
        <end value="3600.0"/>
    </time>

    <report>
        <no-warnings value="true"/>
        <ignore-errors value="true"/>
        <no-step-log value="true"/>
    </report>

</duarouterConfiguration>
-->

<routes xmlns:xsi="http://www.w3.org/2001/XMLSchema-instance" xsi:noNamespaceSchemaLocation="http://sumo.dlr.de/xsd/routes_file.xsd">
    <vType id="motorcycle_motorcycle" vClass="motorcycle"/>
    <trip id="motorcycle0" type="motorcycle_motorcycle" depart="0.00" departLane="best" from="1228619558#0" to="-1090451035"/>
    <trip id="motorcycle1" type="motorcycle_motorcycle" depart="8.90" departLane="best" from="-141479504#2" to="-141479471#1"/>
    <trip id="motorcycle2" type="motorcycle_motorcycle" depart="17.79" departLane="best" from="141479479#10" to="139959782#7"/>
    <trip id="motorcycle3" type="motorcycle_motorcycle" depart="26.69" departLane="best" from="212612264" to="-1096288058"/>
    <trip id="motorcycle4" type="motorcycle_motorcycle" depart="35.59" departLane="best" from="-48876278#2" to="1096199569"/>
    <trip id="motorcycle5" type="motorcycle_motorcycle" depart="44.48" departLane="best" from="141479468#2" to="1096199644"/>
    <trip id="motorcycle7" type="motorcycle_motorcycle" depart="62.28" departLane="best" from="139959764#3" to="1096288082"/>
    <trip id="motorcycle8" type="motorcycle_motorcycle" depart="71.17" departLane="best" from="141479470#0" to="159820188#1"/>
    <trip id="motorcycle9" type="motorcycle_motorcycle" depart="80.07" departLane="best" from="141508001#2" to="-100001035#4"/>
    <trip id="motorcycle10" type="motorcycle_motorcycle" depart="88.97" departLane="best" from="-141508019" to="-141313215#1"/>
    <trip id="motorcycle11" type="motorcycle_motorcycle" depart="97.86" departLane="best" from="-212612260#0" to="-139959766#1"/>
    <trip id="motorcycle12" type="motorcycle_motorcycle" depart="106.76" departLane="best" from="475491383" to="-141508074#1"/>
    <trip id="motorcycle13" type="motorcycle_motorcycle" depart="115.66" departLane="best" from="-1096288083#0" to="995469129"/>
    <trip id="motorcycle14" type="motorcycle_motorcycle" depart="124.55" departLane="best" from="159820188#10" to="1183909461#0"/>
    <trip id="motorcycle15" type="motorcycle_motorcycle" depart="133.45" departLane="best" from="141508022#0" to="-141479478#1"/>
    <trip id="motorcycle16" type="motorcycle_motorcycle" depart="142.35" departLane="best" from="-1096288052#3" to="48876278#2"/>
    <trip id="motorcycle17" type="motorcycle_motorcycle" depart="151.24" departLane="best" from="-395297611" to="1096288093#0"/>
    <trip id="motorcycle18" type="motorcycle_motorcycle" depart="160.14" departLane="best" from="141508068#1" to="1206313532#1"/>
    <trip id="motorcycle19" type="motorcycle_motorcycle" depart="169.04" departLane="best" from="159820188#6" to="1165570284#9"/>
    <trip id="motorcycle20" type="motorcycle_motorcycle" depart="177.93" departLane="best" from="141313215#3" to="1096199635"/>
    <trip id="motorcycle21" type="motorcycle_motorcycle" depart="186.83" departLane="best" from="-141479478#0" to="-141507987#1"/>
    <trip id="motorcycle22" type="motorcycle_motorcycle" depart="195.73" departLane="best" from="-1096288052#1" to="-141479479#1"/>
    <trip id="motorcycle23" type="motorcycle_motorcycle" depart="204.62" departLane="best" from="-1096288100" to="-141479509#0"/>
    <trip id="motorcycle24" type="motorcycle_motorcycle" depart="213.52" departLane="best" from="1228613776" to="-244848890#12"/>
    <trip id="motorcycle25" type="motorcycle_motorcycle" depart="222.42" departLane="best" from="-244848890#5" to="-141479466#0"/>
    <trip id="motorcycle26" type="motorcycle_motorcycle" depart="231.31" departLane="best" from="141479502#0" to="405101033#8"/>
    <trip id="motorcycle27" type="motorcycle_motorcycle" depart="240.21" departLane="best" from="-139959764#2" to="-1204143889"/>
    <trip id="motorcycle28" type="motorcycle_motorcycle" depart="249.11" departLane="best" from="395297607#1" to="141479478#1"/>
    <trip id="motorcycle29" type="motorcycle_motorcycle" depart="258.00" departLane="best" from="-139959767#2" to="-405101033#0"/>
    <trip id="motorcycle30" type="motorcycle_motorcycle" depart="266.90" departLane="best" from="995469126#1" to="1228619558#2"/>
    <trip id="motorcycle31" type="motorcycle_motorcycle" depart="275.80" departLane="best" from="475491383" to="140644724#0"/>
    <trip id="motorcycle32" type="motorcycle_motorcycle" depart="284.69" departLane="best" from="159820188#0" to="141479505"/>
    <trip id="motorcycle33" type="motorcycle_motorcycle" depart="293.59" departLane="best" from="-141479478#0" to="1096199575"/>
    <trip id="motorcycle34" type="motorcycle_motorcycle" depart="302.49" departLane="best" from="-141508030#1" to="-141479502#1"/>
    <trip id="motorcycle35" type="motorcycle_motorcycle" depart="311.38" departLane="best" from="-141479466#1" to="-405101038#0"/>
    <trip id="motorcycle36" type="motorcycle_motorcycle" depart="320.28" departLane="best" departSpeed="max" from="159820218#0" to="-141508030#1"/>
    <trip id="motorcycle37" type="motorcycle_motorcycle" depart="329.18" departLane="best" from="139959766#1" to="405101037#3"/>
    <trip id="motorcycle38" type="motorcycle_motorcycle" depart="338.07" departLane="best" from="-141479494" to="141479479#7"/>
    <trip id="motorcycle39" type="motorcycle_motorcycle" depart="346.97" departLane="best" from="1148474677#1" to="-141479492#2"/>
    <trip id="motorcycle40" type="motorcycle_motorcycle" depart="355.87" departLane="best" from="1165593241#3" to="-212612272#1"/>
    <trip id="motorcycle41" type="motorcycle_motorcycle" depart="364.76" departLane="best" from="-405101038#1" to="-141479468#2"/>
    <trip id="motorcycle42" type="motorcycle_motorcycle" depart="373.66" departLane="best" from="995469134" to="1096210718"/>
    <trip id="motorcycle43" type="motorcycle_motorcycle" depart="382.56" departLane="best" from="-1096288082" to="1096199637"/>
    <trip id="motorcycle44" type="motorcycle_motorcycle" depart="391.45" departLane="best" from="-1196692373" to="1228597447"/>
    <trip id="motorcycle45" type="motorcycle_motorcycle" depart="400.35" departLane="best" from="141507993#1" to="-48876278#3"/>
    <trip id="motorcycle46" type="motorcycle_motorcycle" depart="409.24" departLane="best" from="-1096253354" to="-405101033#2"/>
    <trip id="motorcycle47" type="motorcycle_motorcycle" depart="418.14" departLane="best" from="-995469133" to="1096288028"/>
    <trip id="motorcycle48" type="motorcycle_motorcycle" depart="427.04" departLane="best" from="-48876278#1" to="159820188#5"/>
    <trip id="motorcycle49" type="motorcycle_motorcycle" depart="435.93" departLane="best" from="-1046385792#1" to="141479470#1"/>
    <trip id="motorcycle50" type="motorcycle_motorcycle" depart="444.83" departLane="best" from="139959789" to="1096288053#1"/>
    <trip id="motorcycle51" type="motorcycle_motorcycle" depart="453.73" departLane="best" from="141479502#0" to="1228619558#2"/>
    <trip id="motorcycle52" type="motorcycle_motorcycle" depart="462.62" departLane="best" from="1204143889" to="48876286#7"/>
    <trip id="motorcycle53" type="motorcycle_motorcycle" depart="471.52" departLane="best" from="-100001035#0" to="405101039#5"/>
    <trip id="motorcycle54" type="motorcycle_motorcycle" depart="480.42" departLane="best" departSpeed="max" from="159820218#0" to="-141479492#2"/>
    <trip id="motorcycle55" type="motorcycle_motorcycle" depart="489.31" departLane="best" from="-1096199631" to="-139959782#5"/>
    <trip id="motorcycle56" type="motorcycle_motorcycle" depart="498.21" departLane="best" from="244848890#4" to="159820210#1"/>
    <trip id="motorcycle57" type="motorcycle_motorcycle" depart="507.11" departLane="best" from="-141507997#1" to="1228619558#1"/>
    <trip id="motorcycle58" type="motorcycle_motorcycle" depart="516.00" departLane="best" from="-1183909462" to="-139959764#5"/>
    <trip id="motorcycle59" type="motorcycle_motorcycle" depart="524.90" departLane="best" from="-141479492#1" to="1096288054"/>
    <trip id="motorcycle60" type="motorcycle_motorcycle" depart="533.80" departLane="best" from="141479509#0" to="-1096288039"/>
    <trip id="motorcycle61" type="motorcycle_motorcycle" depart="542.69" departLane="best" from="-100001035#0" to="-141508052"/>
    <trip id="motorcycle62" type="motorcycle_motorcycle" depart="551.59" departLane="best" from="-1090451034#2" to="405101033#2"/>
    <trip id="motorcycle63" type="motorcycle_motorcycle" depart="560.49" departLane="best" from="159820218#1" to="-141508074#0"/>
    <trip id="motorcycle65" type="motorcycle_motorcycle" depart="578.28" departLane="best" from="159820218#0-AddedOffRampEdge" to="405101039#0"/>
    <trip id="motorcycle66" type="motorcycle_motorcycle" depart="587.18" departLane="best" from="-1096288054" to="1096199575"/>
    <trip id="motorcycle67" type="motorcycle_motorcycle" depart="596.07" departLane="best" from="-1096253370" to="141479492#1"/>
    <trip id="motorcycle68" type="motorcycle_motorcycle" depart="604.97" departLane="best" from="-141479494" to="-1227937347"/>
    <trip id="motorcycle69" type="motorcycle_motorcycle" depart="613.87" departLane="best" from="1090451034#1" to="1096288089"/>
    <trip id="motorcycle70" type="motorcycle_motorcycle" depart="622.76" departLane="best" from="-141479494" to="159820210#1-AddedOnRampEdge"/>
    <trip id="motorcycle71" type="motorcycle_motorcycle" depart="631.66" departLane="best" from="-48876278#3" to="141479466#2"/>
    <trip id="motorcycle72" type="motorcycle_motorcycle" depart="640.56" departLane="best" from="1096288053#1" to="141479478#1"/>
    <trip id="motorcycle73" type="motorcycle_motorcycle" depart="649.45" departLane="best" from="141313215#0" to="141508027"/>
    <trip id="motorcycle74" type="motorcycle_motorcycle" depart="658.35" departLane="best" from="-995469130#1" to="139959764#4"/>
    <trip id="motorcycle75" type="motorcycle_motorcycle" depart="667.25" departLane="best" from="-995469126#0" to="1096253329"/>
    <trip id="motorcycle76" type="motorcycle_motorcycle" depart="676.14" departLane="best" from="-1206313532#0" to="-141479474#0"/>
    <trip id="motorcycle77" type="motorcycle_motorcycle" depart="685.04" departLane="best" from="-141508074#1" to="1165593241#7"/>
    <trip id="motorcycle78" type="motorcycle_motorcycle" depart="693.94" departLane="best" from="-141479478#1" to="-141479470#0"/>
    <trip id="motorcycle79" type="motorcycle_motorcycle" depart="702.83" departLane="best" from="395297607#1" to="1228600121#1"/>
    <trip id="motorcycle80" type="motorcycle_motorcycle" depart="711.73" departLane="best" from="-141479478#0" to="212929965#1"/>
    <trip id="motorcycle81" type="motorcycle_motorcycle" depart="720.63" departLane="best" from="159820188#4" to="-1096288017"/>
    <trip id="motorcycle82" type="motorcycle_motorcycle" depart="729.52" departLane="best" from="141479479#12" to="-139959782#2"/>
    <trip id="motorcycle83" type="motorcycle_motorcycle" depart="738.42" departLane="best" from="-141479467" to="-1228600121#0"/>
    <trip id="motorcycle84" type="motorcycle_motorcycle" depart="747.32" departLane="best" from="-405101033#8" to="1165570284#5"/>
    <trip id="motorcycle85" type="motorcycle_motorcycle" depart="756.21" departLane="best" from="1090451034#0" to="141507987#0"/>
    <trip id="motorcycle86" type="motorcycle_motorcycle" depart="765.11" departLane="best" from="141508022#0" to="-140644725"/>
    <trip id="motorcycle87" type="motorcycle_motorcycle" depart="774.01" departLane="best" from="-1096288090" to="-48876286#5"/>
    <trip id="motorcycle88" type="motorcycle_motorcycle" depart="782.90" departLane="best" from="-48876278#3" to="1046385793#2"/>
    <trip id="motorcycle89" type="motorcycle_motorcycle" depart="791.80" departLane="best" from="-141479474#1" to="-139959782#5"/>
    <trip id="motorcycle90" type="motorcycle_motorcycle" depart="800.70" departLane="best" from="48876286#4" to="-1096288093#0"/>
    <trip id="motorcycle91" type="motorcycle_motorcycle" depart="809.59" departLane="best" from="405101039#0" to="212612260#0"/>
    <trip id="motorcycle92" type="motorcycle_motorcycle" depart="818.49" departLane="best" from="159820188#6" to="141479484"/>
    <trip id="motorcycle94" type="motorcycle_motorcycle" depart="836.28" departLane="best" from="-48876278#2" to="-141479509#0"/>
    <trip id="motorcycle95" type="motorcycle_motorcycle" depart="845.18" departLane="best" from="-141479484" to="395297607#0"/>
    <trip id="motorcycle96" type="motorcycle_motorcycle" depart="854.08" departLane="best" from="-995469130#1" to="159820188#5"/>
    <trip id="motorcycle97" type="motorcycle_motorcycle" depart="862.97" departLane="best" from="1096288083#1" to="1096199644"/>
    <trip id="motorcycle98" type="motorcycle_motorcycle" depart="871.87" departLane="best" from="995487315" to="159820181#1"/>
    <trip id="motorcycle99" type="motorcycle_motorcycle" depart="880.77" departLane="best" from="48876277#5" to="395297611"/>
    <trip id="motorcycle100" type="motorcycle_motorcycle" depart="889.66" departLane="best" from="159820188#11" to="-139959767#4"/>
    <trip id="motorcycle101" type="motorcycle_motorcycle" depart="898.56" departLane="best" from="-1096199569" to="-141479467"/>
    <trip id="motorcycle102" type="motorcycle_motorcycle" depart="907.46" departLane="best" from="-405101038#2" to="-1096210758"/>
    <trip id="motorcycle103" type="motorcycle_motorcycle" depart="916.35" departLane="best" from="-395297611" to="-48876286#5"/>
    <trip id="motorcycle104" type="motorcycle_motorcycle" depart="925.25" departLane="best" from="-141479494" to="141507987#0"/>
    <trip id="motorcycle105" type="motorcycle_motorcycle" depart="934.15" departLane="best" from="-100001035#1" to="-48876278#3"/>
    <trip id="motorcycle106" type="motorcycle_motorcycle" depart="943.04" departLane="best" from="475491383" to="995469133"/>
    <trip id="motorcycle107" type="motorcycle_motorcycle" depart="951.94" departLane="best" from="1148474668" to="-141479470#0"/>
    <trip id="motorcycle108" type="motorcycle_motorcycle" depart="960.84" departLane="best" from="-139959766#0" to="141507997#1"/>
    <trip id="motorcycle110" type="motorcycle_motorcycle" depart="978.63" departLane="best" from="-1096210728" to="1165593241#4"/>
    <trip id="motorcycle111" type="motorcycle_motorcycle" depart="987.53" departLane="best" from="-1096199635" to="159820188#15"/>
    <trip id="motorcycle112" type="motorcycle_motorcycle" depart="996.42" departLane="best" from="-139959766#2" to="475492505#1"/>
    <trip id="motorcycle113" type="motorcycle_motorcycle" depart="1005.32" departLane="best" from="-1096288052#3" to="140644721"/>
    <trip id="motorcycle114" type="motorcycle_motorcycle" depart="1014.22" departLane="best" departSpeed="max" from="1166761288#0" to="139959782#6"/>
    <trip id="motorcycle115" type="motorcycle_motorcycle" depart="1023.11" departLane="best" from="-141479479#10" to="-1206313532#0"/>
    <trip id="motorcycle116" type="motorcycle_motorcycle" depart="1032.01" departLane="best" from="212612260#4" to="-141479479#7"/>
    <trip id="motorcycle117" type="motorcycle_motorcycle" depart="1040.91" departLane="best" departSpeed="max" from="1166761288#0" to="1206313532#1"/>
    <trip id="motorcycle119" type="motorcycle_motorcycle" depart="1058.70" departLane="best" from="-1096253368" to="405101033#7"/>
    <trip id="motorcycle120" type="motorcycle_motorcycle" depart="1067.60" departLane="best" from="141313215#2" to="-141479468#1"/>
    <trip id="motorcycle121" type="motorcycle_motorcycle" depart="1076.49" departLane="best" from="141479479#13" to="405101038#0"/>
    <trip id="motorcycle122" type="motorcycle_motorcycle" depart="1085.39" departLane="best" from="139959782#2" to="-141508001#1"/>
    <trip id="motorcycle123" type="motorcycle_motorcycle" depart="1094.29" departLane="best" from="141508030#1" to="141479485#2"/>
    <trip id="motorcycle124" type="motorcycle_motorcycle" depart="1103.18" departLane="best" from="-1096288029" to="100001035#4"/>
    <trip id="motorcycle125" type="motorcycle_motorcycle" depart="1112.08" departLane="best" from="995469134" to="995469133"/>
    <trip id="motorcycle126" type="motorcycle_motorcycle" depart="1120.98" departLane="best" from="-1096288029" to="141479466#2"/>
    <trip id="motorcycle127" type="motorcycle_motorcycle" depart="1129.87" departLane="best" from="-141479494" to="-405101033#6"/>
    <trip id="motorcycle129" type="motorcycle_motorcycle" depart="1147.67" departLane="best" from="-244848890#5" to="-139959766#2"/>
    <trip id="motorcycle130" type="motorcycle_motorcycle" depart="1156.56" departLane="best" from="141508072" to="141313215#4"/>
    <trip id="motorcycle131" type="motorcycle_motorcycle" depart="1165.46" departLane="best" from="1204143889" to="48876286#6"/>
    <trip id="motorcycle132" type="motorcycle_motorcycle" depart="1174.36" departLane="best" from="139959766#0" to="-100001035#5"/>
    <trip id="motorcycle133" type="motorcycle_motorcycle" depart="1183.25" departLane="best" from="141508030#4" to="-141508001#1"/>
    <trip id="motorcycle134" type="motorcycle_motorcycle" depart="1192.15" departLane="best" from="139959767#3" to="405101037#2"/>
    <trip id="motorcycle135" type="motorcycle_motorcycle" depart="1201.05" departLane="best" from="-1228600121#1" to="-1206313029#0"/>
    <trip id="motorcycle136" type="motorcycle_motorcycle" depart="1209.94" departLane="best" from="-1183909462" to="1096288100"/>
    <trip id="motorcycle137" type="motorcycle_motorcycle" depart="1218.84" departLane="best" from="-141479504#0" to="1183909461#1"/>
    <trip id="motorcycle138" type="motorcycle_motorcycle" depart="1227.73" departLane="best" from="141479468#1" to="-141313215#2"/>
    <trip id="motorcycle139" type="motorcycle_motorcycle" depart="1236.63" departLane="best" from="-1228600122" to="141479494"/>
    <trip id="motorcycle140" type="motorcycle_motorcycle" depart="1245.53" departLane="best" from="1096199576" to="212929965#1"/>
    <trip id="motorcycle141" type="motorcycle_motorcycle" depart="1254.42" departLane="best" from="1165593241#8" to="1096288083#0"/>
    <trip id="motorcycle142" type="motorcycle_motorcycle" depart="1263.32" departLane="best" from="-48876278#3" to="141479505"/>
    <trip id="motorcycle143" type="motorcycle_motorcycle" depart="1272.22" departLane="best" from="-100001035#2" to="141479504#0"/>
    <trip id="motorcycle144" type="motorcycle_motorcycle" depart="1281.11" departLane="best" from="1228616590" to="-141479492#1"/>
    <trip id="motorcycle145" type="motorcycle_motorcycle" depart="1290.01" departLane="best" from="141479479#13" to="1096288093#0"/>
    <trip id="motorcycle146" type="motorcycle_motorcycle" depart="1298.91" departLane="best" from="-48876278#5" to="-1046385792#0"/>
    <trip id="motorcycle147" type="motorcycle_motorcycle" depart="1307.80" departLane="best" from="-1096288039" to="-212612242"/>
    <trip id="motorcycle148" type="motorcycle_motorcycle" depart="1316.70" departLane="best" from="-212929965#0" to="1096288082"/>
    <trip id="motorcycle150" type="motorcycle_motorcycle" depart="1334.49" departLane="best" from="-139959764#2" to="-1227937347"/>
    <trip id="motorcycle151" type="motorcycle_motorcycle" depart="1343.39" departLane="best" from="-141508019" to="212612272#2"/>
    <trip id="motorcycle152" type="motorcycle_motorcycle" depart="1352.29" departLane="best" from="-141507997#1" to="159820188#5"/>
    <trip id="motorcycle153" type="motorcycle_motorcycle" depart="1361.18" departLane="best" from="212612272#2" to="-141479466#0"/>
    <trip id="motorcycle154" type="motorcycle_motorcycle" depart="1370.08" departLane="best" from="-141479484" to="1183909461#0"/>
    <trip id="motorcycle155" type="motorcycle_motorcycle" depart="1378.98" departLane="best" from="-141479509#1" to="212612260#0"/>
    <trip id="motorcycle156" type="motorcycle_motorcycle" depart="1387.87" departLane="best" from="405101039#4" to="1206313532#2"/>
    <trip id="motorcycle157" type="motorcycle_motorcycle" depart="1396.77" departLane="best" from="-139959766#0" to="405101033#3"/>
    <trip id="motorcycle158" type="motorcycle_motorcycle" depart="1405.67" departLane="best" from="159820188#7" to="48876278#4"/>
    <trip id="motorcycle159" type="motorcycle_motorcycle" depart="1414.56" departLane="best" from="-141508027" to="212612239"/>
    <trip id="motorcycle160" type="motorcycle_motorcycle" depart="1423.46" departLane="best" from="-48876277#0" to="-141479479#12"/>
    <trip id="motorcycle161" type="motorcycle_motorcycle" depart="1432.36" departLane="best" from="-141508068#1" to="405101033#3"/>
    <trip id="motorcycle162" type="motorcycle_motorcycle" depart="1441.25" departLane="best" from="141508004#1" to="159820188#7"/>
    <trip id="motorcycle163" type="motorcycle_motorcycle" depart="1450.15" departLane="best" from="141508001#2" to="-141479502#0"/>
    <trip id="motorcycle164" type="motorcycle_motorcycle" depart="1459.05" departLane="best" from="-141507987#0" to="1186131206"/>
    <trip id="motorcycle166" type="motorcycle_motorcycle" depart="1476.84" departLane="best" from="-141479471#0" to="141508030#5"/>
    <trip id="motorcycle167" type="motorcycle_motorcycle" depart="1485.74" departLane="best" from="100001035#5" to="141508007"/>
    <trip id="motorcycle168" type="motorcycle_motorcycle" depart="1494.63" departLane="best" from="141507997#0" to="-141479478#0"/>
    <trip id="motorcycle169" type="motorcycle_motorcycle" depart="1503.53" departLane="best" from="-1090451034#6" to="-140644726"/>
    <trip id="motorcycle170" type="motorcycle_motorcycle" depart="1512.43" departLane="best" from="141508065" to="159820188#7"/>
    <trip id="motorcycle171" type="motorcycle_motorcycle" depart="1521.32" departLane="best" from="48876277#4" to="-141479509#0"/>
    <trip id="motorcycle172" type="motorcycle_motorcycle" depart="1530.22" departLane="best" from="1228619558#1" to="-405101038#2"/>
    <trip id="motorcycle173" type="motorcycle_motorcycle" depart="1539.12" departLane="best" from="48876286#0" to="1096288053#0"/>
    <trip id="motorcycle174" type="motorcycle_motorcycle" depart="1548.01" departLane="best" from="405101033#7" to="-1206313029#0"/>
    <trip id="motorcycle175" type="motorcycle_motorcycle" depart="1556.91" departLane="best" from="-48876278#0" to="-139959782#5"/>
    <trip id="motorcycle176" type="motorcycle_motorcycle" depart="1565.81" departLane="best" from="476006826#1" to="-141479502#0"/>
    <trip id="motorcycle177" type="motorcycle_motorcycle" depart="1574.70" departLane="best" from="-1186131206" to="-48876286#7"/>
    <trip id="motorcycle178" type="motorcycle_motorcycle" depart="1583.60" departLane="best" from="-141479474#1" to="141508030#0"/>
    <trip id="motorcycle179" type="motorcycle_motorcycle" depart="1592.50" departLane="best" from="-1183909461#1" to="1096210719"/>
    <trip id="motorcycle180" type="motorcycle_motorcycle" depart="1601.39" departLane="best" from="-405101033#4" to="1165570284#8"/>
    <trip id="motorcycle181" type="motorcycle_motorcycle" depart="1610.29" departLane="best" from="-141479485#2" to="141479466#1"/>
    <trip id="motorcycle182" type="motorcycle_motorcycle" depart="1619.19" departLane="best" from="-100001035#1" to="395297611"/>
    <trip id="motorcycle183" type="motorcycle_motorcycle" depart="1628.08" departLane="best" from="1096288053#0" to="141479470#1"/>
    <trip id="motorcycle184" type="motorcycle_motorcycle" depart="1636.98" departLane="best" from="141479479#2" to="-139959782#3"/>
    <trip id="motorcycle185" type="motorcycle_motorcycle" depart="1645.88" departLane="best" from="-244848890#11" to="-1096288016"/>
    <trip id="motorcycle186" type="motorcycle_motorcycle" depart="1654.77" departLane="best" from="139959767#3" to="-141508068#1"/>
    <trip id="motorcycle187" type="motorcycle_motorcycle" depart="1663.67" departLane="best" from="-141508030#0" to="159820188#12"/>
    <trip id="motorcycle188" type="motorcycle_motorcycle" depart="1672.57" departLane="best" from="141479468#2" to="-141508001#1"/>
    <trip id="motorcycle189" type="motorcycle_motorcycle" depart="1681.46" departLane="best" from="-141508022#0" to="475491306"/>
    <trip id="motorcycle190" type="motorcycle_motorcycle" depart="1690.36" departLane="best" from="405101039#0" to="-141507997#0"/>
    <trip id="motorcycle191" type="motorcycle_motorcycle" depart="1699.26" departLane="best" from="-1227937346" to="48876278#2"/>
    <trip id="motorcycle192" type="motorcycle_motorcycle" depart="1708.15" departLane="best" from="-405101037#3" to="139959782#7"/>
    <trip id="motorcycle193" type="motorcycle_motorcycle" depart="1717.05" departLane="best" from="212929964" to="1206313029#2"/>
    <trip id="motorcycle194" type="motorcycle_motorcycle" depart="1725.95" departLane="best" from="141508001#1" to="1096288083#1"/>
    <trip id="motorcycle195" type="motorcycle_motorcycle" depart="1734.84" departLane="best" from="-100001035#0" to="141507987#0"/>
    <trip id="motorcycle197" type="motorcycle_motorcycle" depart="1752.64" departLane="best" from="139959766#0" to="1046385793#1"/>
    <trip id="motorcycle198" type="motorcycle_motorcycle" depart="1761.53" departLane="best" from="-995469130#0" to="-141479467"/>
    <trip id="motorcycle199" type="motorcycle_motorcycle" depart="1770.43" departLane="best" from="1090451034#0" to="212612272#3"/>
    <trip id="motorcycle200" type="motorcycle_motorcycle" depart="1779.33" departLane="best" from="-1096288054" to="1096210759"/>
    <trip id="motorcycle201" type="motorcycle_motorcycle" depart="1788.22" departLane="best" from="1228600121#1" to="-141508074#0"/>
    <trip id="motorcycle202" type="motorcycle_motorcycle" depart="1797.12" departLane="best" from="141508030#4" to="141479485#1"/>
    <trip id="motorcycle203" type="motorcycle_motorcycle" depart="1806.02" departLane="best" from="139959782#3" to="-141479474#0"/>
    <trip id="motorcycle204" type="motorcycle_motorcycle" depart="1814.91" departLane="best" from="-140895538" to="1090451034#6"/>
    <trip id="motorcycle206" type="motorcycle_motorcycle" depart="1832.71" departLane="best" from="159820188#12" to="-1096288029"/>
    <trip id="motorcycle207" type="motorcycle_motorcycle" depart="1841.60" departLane="best" from="-48876277#3" to="-1228600121#0"/>
    <trip id="motorcycle208" type="motorcycle_motorcycle" depart="1850.50" departLane="best" from="140644727" to="141313215#0"/>
    <trip id="motorcycle209" type="motorcycle_motorcycle" depart="1859.40" departLane="best" from="-1096199590" to="-141479479#6"/>
    <trip id="motorcycle210" type="motorcycle_motorcycle" depart="1868.29" departLane="best" from="139959766#1" to="100001035#3"/>
    <trip id="motorcycle211" type="motorcycle_motorcycle" depart="1877.19" departLane="best" from="-141479485#0" to="141479504#0"/>
    <trip id="motorcycle212" type="motorcycle_motorcycle" depart="1886.09" departLane="best" from="-1183909462" to="-48876278#5"/>
    <trip id="motorcycle213" type="motorcycle_motorcycle" depart="1894.98" departLane="best" from="139959782#3" to="475491383"/>
    <trip id="motorcycle214" type="motorcycle_motorcycle" depart="1903.88" departLane="best" from="-1096210759" to="1096199644"/>
    <trip id="motorcycle215" type="motorcycle_motorcycle" depart="1912.78" departLane="best" from="-141479482" to="159820188#13"/>
    <trip id="motorcycle216" type="motorcycle_motorcycle" depart="1921.67" departLane="best" from="100001035#2" to="141508007"/>
    <trip id="motorcycle217" type="motorcycle_motorcycle" depart="1930.57" departLane="best" from="139959772" to="-48876286#7"/>
    <trip id="motorcycle218" type="motorcycle_motorcycle" depart="1939.47" departLane="best" from="212612264" to="1206134902"/>
    <trip id="motorcycle219" type="motorcycle_motorcycle" depart="1948.36" departLane="best" from="141479468#2" to="1096199644"/>