<?xml version="1.0" encoding="UTF-8"?>

<!-- generated on 2024-10-19 07:28:51.372521 by osmWebWizard.py v1_21_0+0000-d7b3b481c43
<configuration>
    <net-file value="C:\Users\manut\Sumo\2024-10-19-07-28-43\osm.net.xml.gz"/>
    <output-trip-file value="C:\Users\manut\Sumo\2024-10-19-07-28-43\osm.passenger.trips.xml"/>
    <route-file value="C:\Users\manut\Sumo\2024-10-19-07-28-43\osm.passenger.rou.xml"/>
    <prefix value="veh"/>
    <trip-attributes value="departLane=&quot;best&quot;"/>
    <fringe-start-attributes value="departSpeed=&quot;max&quot;"/>
    <vehicle-class value="passenger"/>
    <lanes value="True"/>
    <fringe-factor value="5"/>
    <allow-fringe.min-length value="1000.0"/>
    <via-edge-types value="highway.motorway,highway.motorway_link,highway.trunk_link,highway.primary_link,highway.secondary_link,highway.tertiary_link"/>
    <min-distance value="300.0"/>
    <min-distance.fringe value="10.0"/>
    <remove-loops value="True"/>
    <validate value="True"/>
    <insertion-density value="20.0"/>
</configuration>
-->

<!-- generated on 2024-10-19 07:28:51 by Eclipse SUMO duarouter Version 1.21.0
<duarouterConfiguration xmlns:xsi="http://www.w3.org/2001/XMLSchema-instance" xsi:noNamespaceSchemaLocation="http://sumo.dlr.de/xsd/duarouterConfiguration.xsd">

    <input>
        <net-file value="C:\Users\manut\Sumo\2024-10-19-07-28-43\osm.net.xml.gz"/>
        <route-files value="C:\Users\manut\Sumo\2024-10-19-07-28-43\osm.passenger.trips.xml"/>
    </input>

    <output>
        <output-file value="C:\Users\manut\Sumo\2024-10-19-07-28-43\osm.passenger.trips.xml.tmp"/>
        <alternatives-output value="NUL"/>
        <write-trips value="true"/>
    </output>

    <processing>
        <remove-loops value="true"/>
    </processing>

    <time>
        <begin value="0.0"/>
        <end value="3600.0"/>
    </time>

    <report>
        <no-warnings value="true"/>
        <ignore-errors value="true"/>
        <no-step-log value="true"/>
    </report>

</duarouterConfiguration>
-->

<routes xmlns:xsi="http://www.w3.org/2001/XMLSchema-instance" xsi:noNamespaceSchemaLocation="http://sumo.dlr.de/xsd/routes_file.xsd">
    <vType id="veh_passenger" vClass="passenger"/>
    <trip id="veh0" type="veh_passenger" depart="0.00" departLane="best" from="-139959766#2" to="-1096199567"/>
    <trip id="veh1" type="veh_passenger" depart="4.45" departLane="best" from="-141508027" to="-141479491#0"/>
    <trip id="veh2" type="veh_passenger" depart="8.90" departLane="best" from="212612260#3" to="1096288100"/>
    <trip id="veh3" type="veh_passenger" depart="13.34" departLane="best" from="-141479482" to="1165570284#11"/>
    <trip id="veh4" type="veh_passenger" depart="17.79" departLane="best" from="-1096199569" to="141479478#1"/>
    <trip id="veh6" type="veh_passenger" depart="26.69" departLane="best" from="159820188#0-AddedOnRampEdge" to="100001035#4"/>
    <trip id="veh7" type="veh_passenger" depart="31.14" departLane="best" from="159820188#0" to="141479479#1"/>
    <trip id="veh8" type="veh_passenger" depart="35.59" departLane="best" from="-405101033#6" to="-139959782#5"/>
    <trip id="veh9" type="veh_passenger" depart="40.03" departLane="best" from="475492505#0" to="-405101033#7"/>
    <trip id="veh10" type="veh_passenger" depart="44.48" departLane="best" from="159820188#8" to="1227937346"/>
    <trip id="veh11" type="veh_passenger" depart="48.93" departLane="best" from="159820188#0" to="141479502#3"/>
    <trip id="veh12" type="veh_passenger" depart="53.38" departLane="best" departSpeed="max" from="1165593241#0" to="48876277#5"/>
    <trip id="veh13" type="veh_passenger" depart="57.83" departLane="best" from="141479478#1" to="1096210711"/>
    <trip id="veh14" type="veh_passenger" depart="62.28" departLane="best" from="-1096288082" to="-141479502#1"/>
    <trip id="veh15" type="veh_passenger" depart="66.72" departLane="best" from="-1206134902" to="-141508030#6"/>
    <trip id="veh16" type="veh_passenger" depart="71.17" departLane="best" from="-139959764#5" to="48876278#1"/>
    <trip id="veh17" type="veh_passenger" depart="75.62" departLane="best" from="-48876278#1" to="-141479479#3"/>
    <trip id="veh18" type="veh_passenger" depart="80.07" departLane="best" from="139959772" to="-1228600121#0"/>
    <trip id="veh19" type="veh_passenger" depart="84.52" departLane="best" from="140644727" to="141479502#2"/>
    <trip id="veh20" type="veh_passenger" depart="88.97" departLane="best" from="139959789" to="141507993#1"/>
    <trip id="veh21" type="veh_passenger" depart="93.41" departLane="best" from="48876286#7" to="139959772"/>
    <trip id="veh22" type="veh_passenger" depart="97.86" departLane="best" from="1165593241#7" to="141479468#2"/>
    <trip id="veh23" type="veh_passenger" depart="102.31" departLane="best" from="159820188#6" to="141508052"/>
    <trip id="veh24" type="veh_passenger" depart="106.76" departLane="best" from="-141479492#0" to="1096199590"/>
    <trip id="veh25" type="veh_passenger" depart="111.21" departLane="best" departSpeed="max" from="159820218#0" to="-244848890#11"/>
    <trip id="veh26" type="veh_passenger" depart="115.66" departLane="best" from="139959782#5" to="100001035#2"/>
    <trip id="veh27" type="veh_passenger" depart="120.10" departLane="best" from="244848890#4" to="1096288028"/>
    <trip id="veh28" type="veh_passenger" depart="124.55" departLane="best" from="1165593241#8" to="-141508004#1"/>
    <trip id="veh29" type="veh_passenger" depart="129.00" departLane="best" from="995469134" to="1165570284#11"/>
    <trip id="veh30" type="veh_passenger" depart="133.45" departLane="best" from="-1210672081" to="-139959764#5"/>
    <trip id="veh31" type="veh_passenger" depart="137.90" departLane="best" from="-141508068#2" to="1096199575"/>
    <trip id="veh32" type="veh_passenger" depart="142.35" departLane="best" from="995469133" to="1165570284#8"/>
    <trip id="veh33" type="veh_passenger" depart="146.79" departLane="best" from="48876277#4" to="159820210#1-AddedOnRampEdge"/>
    <trip id="veh34" type="veh_passenger" depart="151.24" departLane="best" from="-1046385793#1" to="141479492#0"/>
    <trip id="veh35" type="veh_passenger" depart="155.69" departLane="best" from="-141508004#1" to="-244848890#11"/>
    <trip id="veh36" type="veh_passenger" depart="160.14" departLane="best" from="-1227937346" to="1096199635"/>
    <trip id="veh37" type="veh_passenger" depart="164.59" departLane="best" from="1096210758" to="1148474670"/>
    <trip id="veh38" type="veh_passenger" depart="169.04" departLane="best" departSpeed="max" from="159820218#0" to="-141508004#1"/>
    <trip id="veh39" type="veh_passenger" depart="173.48" departLane="best" from="1165570284#1" to="-141313215#3"/>
    <trip id="veh40" type="veh_passenger" depart="177.93" departLane="best" from="244848890#2" to="159820210#3"/>
    <trip id="veh41" type="veh_passenger" depart="182.38" departLane="best" from="-212612242" to="139959772"/>
    <trip id="veh42" type="veh_passenger" depart="186.83" departLane="best" from="-1206313532#2" to="-139959782#3"/>
    <trip id="veh44" type="veh_passenger" depart="195.73" departLane="best" from="141508030#3" to="1165570284#8"/>
    <trip id="veh45" type="veh_passenger" depart="200.17" departLane="best" from="-100001035#0" to="-244848890#8"/>
    <trip id="veh46" type="veh_passenger" depart="204.62" departLane="best" from="159820218#0-AddedOffRampEdge" to="159820188#16"/>
    <trip id="veh47" type="veh_passenger" depart="209.07" departLane="best" from="-212612268#0" to="1096253369"/>
    <trip id="veh48" type="veh_passenger" depart="213.52" departLane="best" departSpeed="max" from="159820218#0" to="405101039#2"/>
    <trip id="veh49" type="veh_passenger" depart="217.97" departLane="best" from="-1096288090" to="1148474670"/>
    <trip id="veh50" type="veh_passenger" depart="222.42" departLane="best" from="-1096288052#1" to="141508022#0"/>
    <trip id="veh51" type="veh_passenger" depart="226.86" departLane="best" from="141508004#0" to="-139959764#2"/>
    <trip id="veh52" type="veh_passenger" depart="231.31" departLane="best" from="1096288054" to="1165593241#7"/>
    <trip id="veh53" type="veh_passenger" depart="235.76" departLane="best" from="141508004#0" to="159820210#3"/>
    <trip id="veh54" type="veh_passenger" depart="240.21" departLane="best" from="1096199567" to="-141479479#4"/>
    <trip id="veh55" type="veh_passenger" depart="244.66" departLane="best" from="-995469130#1" to="139959782#7"/>
    <trip id="veh56" type="veh_passenger" depart="249.11" departLane="best" from="-1096199593" to="1165570284#4"/>
    <trip id="veh57" type="veh_passenger" depart="253.55" departLane="best" from="1228613776" to="141479491#1"/>
    <trip id="veh58" type="veh_passenger" depart="258.00" departLane="best" from="-405101033#4" to="1183909462"/>
    <trip id="veh59" type="veh_passenger" depart="262.45" departLane="best" from="-141479492#0" to="-212929964"/>
    <trip id="veh61" type="veh_passenger" depart="271.35" departLane="best" from="141479479#4" to="-139959764#5"/>
    <trip id="veh63" type="veh_passenger" depart="280.24" departLane="best" from="1096288053#0" to="-141508074#0"/>
    <trip id="veh64" type="veh_passenger" depart="284.69" departLane="best" from="159820188#0" to="141479468#2"/>
    <trip id="veh65" type="veh_passenger" depart="289.14" departLane="best" from="-1196692373" to="1096199592"/>
    <trip id="veh66" type="veh_passenger" depart="293.59" departLane="best" from="48876286#2" to="1206128162"/>
    <trip id="veh68" type="veh_passenger" depart="302.49" departLane="best" from="1096199566" to="-141508030#6"/>
    <trip id="veh69" type="veh_passenger" depart="306.93" departLane="best" from="-141479512#1" to="395297607#0"/>
    <trip id="veh70" type="veh_passenger" depart="311.38" departLane="best" from="-1096199637" to="159820210#1-AddedOnRampEdge"/>
    <trip id="veh71" type="veh_passenger" depart="315.83" departLane="best" from="995487315" to="159820188#3"/>
    <trip id="veh72" type="veh_passenger" depart="320.28" departLane="best" from="-48876277#3" to="395297611"/>
    <trip id="veh73" type="veh_passenger" depart="324.73" departLane="best" from="159820188#8" to="-140644725"/>
    <trip id="veh74" type="veh_passenger" depart="329.18" departLane="best" from="1096288093#0" to="-141479479#7"/>
    <trip id="veh75" type="veh_passenger" depart="333.62" departLane="best" from="-100001035#2" to="1096253369"/>
    <trip id="veh76" type="veh_passenger" depart="338.07" departLane="best" from="-1096210759" to="1096199576"/>
    <trip id="veh77" type="veh_passenger" depart="342.52" departLane="best" from="1165593241#6" to="141479491#0"/>
    <trip id="veh79" type="veh_passenger" depart="351.42" departLane="best" from="1165593241#1" to="141507993#1"/>
    <trip id="veh80" type="veh_passenger" depart="355.87" departLane="best" from="-1096253368" to="1183908256"/>
    <trip id="veh82" type="veh_passenger" depart="364.76" departLane="best" from="139959782#5" to="475492505#1"/>
    <trip id="veh83" type="veh_passenger" depart="369.21" departLane="best" from="-1096288082" to="-141479467"/>
    <trip id="veh85" type="veh_passenger" depart="378.11" departLane="best" from="141479502#1" to="-1228613776"/>
    <trip id="veh86" type="veh_passenger" depart="382.56" departLane="best" from="212612260#1" to="141479512#1"/>
    <trip id="veh88" type="veh_passenger" depart="391.45" departLane="best" from="1165570284#8" to="405101033#8"/>
    <trip id="veh89" type="veh_passenger" depart="395.90" departLane="best" from="140644728" to="-212612260#3"/>
    <trip id="veh90" type="veh_passenger" depart="400.35" departLane="best" from="-212929965#0" to="141507997#1"/>
    <trip id="veh91" type="veh_passenger" depart="404.80" departLane="best" from="-1096288053#1" to="-141479479#6"/>
    <trip id="veh92" type="veh_passenger" depart="409.24" departLane="best" from="141508004#0" to="405101033#6"/>
    <trip id="veh93" type="veh_passenger" depart="413.69" departLane="best" from="-48876278#1" to="-139959782#7"/>
    <trip id="veh94" type="veh_passenger" depart="418.14" departLane="best" from="1227937346" to="-48876286#5"/>
    <trip id="veh95" type="veh_passenger" depart="422.59" departLane="best" from="139959782#3" to="-100001035#5"/>
    <trip id="veh96" type="veh_passenger" depart="427.04" departLane="best" from="159820188#10" to="-212612260#3"/>
    <trip id="veh97" type="veh_passenger" depart="431.49" departLane="best" from="-140644721" to="405101037#3"/>
    <trip id="veh98" type="veh_passenger" depart="435.93" departLane="best" from="-139959764#5" to="-1228600121#0"/>
    <trip id="veh99" type="veh_passenger" depart="440.38" departLane="best" from="-1206313532#1" to="1165593241#8"/>
    <trip id="veh100" type="veh_passenger" depart="444.83" departLane="best" from="-141508022#0" to="1227937347"/>
    <trip id="veh101" type="veh_passenger" depart="449.28" departLane="best" from="-139959764#4" to="-141508004#1"/>
    <trip id="veh102" type="veh_passenger" depart="453.73" departLane="best" from="1096199567" to="-141508030#4"/>
    <trip id="veh103" type="veh_passenger" depart="458.18" departLane="best" from="139959766#0" to="-141508004#0"/>
    <trip id="veh106" type="veh_passenger" depart="471.52" departLane="best" from="-139959779#0" to="-139959764#1"/>
    <trip id="veh107" type="veh_passenger" depart="475.97" departLane="best" from="141508074#1" to="159820210#1-AddedOnRampEdge"/>
    <trip id="veh108" type="veh_passenger" depart="480.42" departLane="best" from="212612272#0" to="-141479479#3"/>
    <trip id="veh110" type="veh_passenger" depart="489.31" departLane="best" from="100001035#6" to="-139959764#0"/>
    <trip id="veh111" type="veh_passenger" depart="493.76" departLane="best" from="139959782#3" to="405101033#3"/>
    <trip id="veh113" type="veh_passenger" depart="502.66" departLane="best" from="-139959764#1" to="141479509#0"/>
    <trip id="veh114" type="veh_passenger" depart="507.11" departLane="best" from="395297607#0" to="405101033#4"/>
    <trip id="veh115" type="veh_passenger" depart="511.56" departLane="best" departSpeed="max" from="159820185#0" to="159820210#2"/>
    <trip id="veh116" type="veh_passenger" depart="516.00" departLane="best" from="-1096253369" to="212612268#2"/>
    <trip id="veh117" type="veh_passenger" depart="520.45" departLane="best" from="141508074#0" to="-141479492#1"/>
    <trip id="veh118" type="veh_passenger" depart="524.90" departLane="best" from="-1096199566" to="-141479471#0"/>
    <trip id="veh119" type="veh_passenger" depart="529.35" departLane="best" from="-244848890#7" to="159820210#2"/>
    <trip id="veh120" type="veh_passenger" depart="533.80" departLane="best" from="476006826#1" to="-141508030#7"/>
    <trip id="veh121" type="veh_passenger" depart="538.25" departLane="best" from="-139959766#3" to="100001035#5"/>
    <trip id="veh123" type="veh_passenger" depart="547.14" departLane="best" from="405101038#0" to="-1228600121#0"/>
    <trip id="veh124" type="veh_passenger" depart="551.59" departLane="best" from="48876277#4" to="-141313215#3"/>
    <trip id="veh125" type="veh_passenger" depart="556.04" departLane="best" from="-1206313532#2" to="1096199631"/>
    <trip id="veh126" type="veh_passenger" depart="560.49" departLane="best" from="-141479491#2" to="-244848890#0"/>
    <trip id="veh127" type="veh_passenger" depart="564.94" departLane="best" from="1206313532#0" to="1165570284#11"/>
    <trip id="veh129" type="veh_passenger" depart="573.83" departLane="best" from="-100001035#1" to="395297611"/>
    <trip id="veh130" type="veh_passenger" depart="578.28" departLane="best" departSpeed="max" from="1165593241#0" to="141479491#1"/>
    <trip id="veh131" type="veh_passenger" depart="582.73" departLane="best" from="-48876277#3" to="1096288052#3"/>
    <trip id="veh132" type="veh_passenger" depart="587.18" departLane="best" from="-140644723" to="405101033#0"/>
    <trip id="veh133" type="veh_passenger" depart="591.63" departLane="best" from="212929964" to="159820188#7"/>
    <trip id="veh134" type="veh_passenger" depart="596.07" departLane="best" from="141479479#7" to="-212612260#4"/>
    <trip id="veh135" type="veh_passenger" depart="600.52" departLane="best" from="-100001035#3" to="212612260#0"/>
    <trip id="veh136" type="veh_passenger" depart="604.97" departLane="best" from="212612272#3" to="1228619558#0"/>
    <trip id="veh137" type="veh_passenger" depart="609.42" departLane="best" from="-212612260#1" to="1165593241#6"/>
    <trip id="veh138" type="veh_passenger" depart="613.87" departLane="best" from="-100001035#0" to="-141508068#1"/>
    <trip id="veh139" type="veh_passenger" depart="618.32" departLane="best" from="-1096199637" to="-141479479#7"/>
    <trip id="veh140" type="veh_passenger" depart="622.76" departLane="best" from="141508074#1" to="-140644728"/>
    <trip id="veh141" type="veh_passenger" depart="627.21" departLane="best" from="-139959764#3" to="405101033#6"/>
    <trip id="veh142" type="veh_passenger" depart="631.66" departLane="best" from="159820188#11" to="141507997#1"/>
    <trip id="veh143" type="veh_passenger" depart="636.11" departLane="best" from="140644728" to="141479491#1"/>
    <trip id="veh144" type="veh_passenger" depart="640.56" departLane="best" from="-141479474#1" to="-1096199567"/>
    <trip id="veh145" type="veh_passenger" depart="645.01" departLane="best" from="-141479509#0" to="1096288083#0"/>
    <trip id="veh146" type="veh_passenger" depart="649.45" departLane="best" from="159820188#8" to="-1096288053#1"/>
    <trip id="veh147" type="veh_passenger" depart="653.90" departLane="best" from="1148474674" to="141479509#1"/>
    <trip id="veh148" type="veh_passenger" depart="658.35" departLane="best" from="139959782#5" to="100001035#4"/>
    <trip id="veh149" type="veh_passenger" depart="662.80" departLane="best" from="1206313532#0" to="-1096199577"/>
    <trip id="veh150" type="veh_passenger" depart="667.25" departLane="best" from="-141313215#0" to="475492505#0"/>
    <trip id="veh152" type="veh_passenger" depart="676.14" departLane="best" from="-141479512#1" to="159820188#7"/>
    <trip id="veh153" type="veh_passenger" depart="680.59" departLane="best" from="-1183909461#1" to="405101039#5"/>
    <trip id="veh154" type="veh_passenger" depart="685.04" departLane="best" from="212612260#2" to="-1228613776"/>
    <trip id="veh155" type="veh_passenger" depart="689.49" departLane="best" from="141479479#7" to="1165570284#11"/>
    <trip id="veh156" type="veh_passenger" depart="693.94" departLane="best" from="-212612268#0" to="141507987#0"/>
    <trip id="veh157" type="veh_passenger" depart="698.39" departLane="best" from="1096288054" to="-141508001#0"/>
    <trip id="veh158" type="veh_passenger" depart="702.83" departLane="best" from="-141479509#1" to="139959767#4"/>
    <trip id="veh159" type="veh_passenger" depart="707.28" departLane="best" from="141508004#0" to="1165570284#5"/>
    <trip id="veh160" type="veh_passenger" depart="711.73" departLane="best" from="1228619558#2" to="-141508030#1"/>
    <trip id="veh161" type="veh_passenger" depart="716.18" departLane="best" from="-1096288063" to="-141508068#0"/>
    <trip id="veh162" type="veh_passenger" depart="720.63" departLane="best" from="-141508022#0" to="-244848890#4"/>
    <trip id="veh163" type="veh_passenger" depart="725.08" departLane="best" departSpeed="max" from="1165593241#0" to="139959766#3"/>
    <trip id="veh164" type="veh_passenger" depart="729.52" departLane="best" from="-141479492#2" to="141479478#0"/>
    <trip id="veh166" type="veh_passenger" depart="738.42" departLane="best" from="1090451034#0" to="-141479479#13"/>
    <trip id="veh167" type="veh_passenger" depart="742.87" departLane="best" from="-1090451034#5" to="212612272#3"/>
    <trip id="veh168" type="veh_passenger" depart="747.32" departLane="best" from="1166761288#1-AddedOffRampEdge" to="141479478#1"/>
    <trip id="veh170" type="veh_passenger" depart="756.21" departLane="best" from="48876286#5" to="100001035#4"/>
    <trip id="veh171" type="veh_passenger" depart="760.66" departLane="best" from="-405101038#2" to="141508022#2"/>
    <trip id="veh172" type="veh_passenger" depart="765.11" departLane="best" from="-1090451034#5" to="141507993#1"/>
    <trip id="veh173" type="veh_passenger" depart="769.56" departLane="best" from="1165593241#3" to="1227937346"/>
    <trip id="veh174" type="veh_passenger" depart="774.01" departLane="best" from="-1096199591" to="-1096199576"/>
    <trip id="veh175" type="veh_passenger" depart="778.46" departLane="best" from="100001035#5" to="-140644724#0"/>
    <trip id="veh176" type="veh_passenger" depart="782.90" departLane="best" from="1096288039" to="-139959764#1"/>
    <trip id="veh177" type="veh_passenger" depart="787.35" departLane="best" from="1228616590" to="1096199575"/>
    <trip id="veh178" type="veh_passenger" depart="791.80" departLane="best" from="-995469133" to="1166761282"/>
    <trip id="veh179" type="veh_passenger" depart="796.25" departLane="best" from="-1096210728" to="-995469126#0"/>
    <trip id="veh180" type="veh_passenger" depart="800.70" departLane="best" from="141479479#2" to="-395297607#0"/>
    <trip id="veh181" type="veh_passenger" depart="805.15" departLane="best" from="141507978#1" to="159820188#16"/>
    <trip id="veh182" type="veh_passenger" depart="809.59" departLane="best" from="-141507978#1" to="1096288083#1"/>
    <trip id="veh183" type="veh_passenger" depart="814.04" departLane="best" from="995487315" to="-405101039#1"/>
    <trip id="veh184" type="veh_passenger" depart="818.49" departLane="best" from="139959782#1" to="141508068#1"/>
    <trip id="veh185" type="veh_passenger" depart="822.94" departLane="best" from="139959782#2" to="141508022#2"/>
    <trip id="veh186" type="veh_passenger" depart="827.39" departLane="best" from="405101039#5" to="-141479478#1"/>
    <trip id="veh187" type="veh_passenger" depart="831.83" departLane="best" from="-1090451034#6" to="-139959782#3"/>
    <trip id="veh188" type="veh_passenger" depart="836.28" departLane="best" from="141479471#1" to="141508030#1"/>
    <trip id="veh189" type="veh_passenger" depart="840.73" departLane="best" from="-140644725" to="1228597447"/>
    <trip id="veh190" type="veh_passenger" depart="845.18" departLane="best" from="159820188#11" to="476006826#1"/>
    <trip id="veh191" type="veh_passenger" depart="849.63" departLane="best" from="-1206313532#1" to="1096199569"/>
    <trip id="veh192" type="veh_passenger" depart="854.08" departLane="best" from="-212612272#1" to="141479466#1"/>
    <trip id="veh193" type="veh_passenger" depart="858.52" departLane="best" from="475492505#0" to="100001035#3"/>
    <trip id="veh194" type="veh_passenger" depart="862.97" departLane="best" from="141479479#3" to="-1096288058"/>
    <trip id="veh195" type="veh_passenger" depart="867.42" departLane="best" from="141479468#0" to="-139959764#5"/>
    <trip id="veh196" type="veh_passenger" depart="871.87" departLane="best" from="159820188#9" to="1206313532#2"/>
    <trip id="veh197" type="veh_passenger" depart="876.32" departLane="best" from="1228613776" to="-48876286#0"/>
    <trip id="veh198" type="veh_passenger" depart="880.77" departLane="best" from="-1096199575" to="-48876278#5"/>
    <trip id="veh199" type="veh_passenger" depart="885.21" departLane="best" from="1165570284#2" to="-405101037#1"/>
    <trip id="veh200" type="veh_passenger" depart="889.66" departLane="best" from="159820188#8" to="159820188#16"/>
    <trip id="veh201" type="veh_passenger" depart="894.11" departLane="best" from="1206313532#0" to="475492505#1"/>
    <trip id="veh202" type="veh_passenger" depart="898.56" departLane="best" from="-139959764#5" to="159820188#16"/>
    <trip id="veh203" type="veh_passenger" depart="903.01" departLane="best" from="-141479494" to="476006826#1"/>
    <trip id="veh204" type="veh_passenger" depart="907.46" departLane="best" from="-141508016" to="159820188#11"/>
    <trip id="veh205" type="veh_passenger" depart="911.90" departLane="best" departSpeed="max" from="1165593241#0" to="1148474668"/>
    <trip id="veh206" type="veh_passenger" depart="916.35" departLane="best" from="-1096199591" to="141479504#0"/>
    <trip id="veh207" type="veh_passenger" depart="920.80" departLane="best" from="-141508007" to="159820188#8"/>
    <trip id="veh208" type="veh_passenger" depart="925.25" departLane="best" from="159820188#15" to="-1096288093#0"/>
    <trip id="veh209" type="veh_passenger" depart="929.70" departLane="best" from="159820218#0-AddedOffRampEdge" to="141479509#1"/>
    <trip id="veh210" type="veh_passenger" depart="934.15" departLane="best" from="1096288017" to="1228600121#1"/>
    <trip id="veh211" type="veh_passenger" depart="938.59" departLane="best" from="48876286#4" to="1096199576"/>
    <trip id="veh212" type="veh_passenger" depart="943.04" departLane="best" from="141479479#2" to="159820188#0-AddedOnRampEdge"/>
    <trip id="veh214" type="veh_passenger" depart="951.94" departLane="best" from="-1046385792#1" to="405101039#4"/>
    <trip id="veh215" type="veh_passenger" depart="956.39" departLane="best" from="1148474668" to="141508007"/>
    <trip id="veh216" type="veh_passenger" depart="960.84" departLane="best" from="141479468#0" to="-139959782#4"/>
    <trip id="veh217" type="veh_passenger" depart="965.28" departLane="best" from="475491383" to="159820181#1"/>
    <trip id="veh218" type="veh_passenger" depart="969.73" departLane="best" from="141479468#0" to="-212612272#0"/>
    <trip id="veh219" type="veh_passenger" depart="974.18" departLane="best" from="1166761288#1-AddedOffRampEdge" to="1096288069"/>
    <trip id="veh220" type="veh_passenger" depart="978.63" departLane="best" departSpeed="max" from="1165593241#0" to="1096199582"/>
    <trip id="veh221" type="veh_passenger" depart="983.08" departLane="best" from="-141479505" to="-405101033#2"/>
    <trip id="veh222" type="veh_passenger" depart="987.53" departLane="best" from="-141507978#1" to="-1228619558#0"/>
    <trip id="veh223" type="veh_passenger" depart="991.97" departLane="best" departSpeed="max" from="1165593241#0" to="141508022#1"/>
    <trip id="veh224" type="veh_passenger" depart="996.42" departLane="best" from="-1096288089" to="141479494"/>
    <trip id="veh225" type="veh_passenger" depart="1000.87" departLane="best" from="-48876278#2" to="1165570284#6"/>
    <trip id="veh226" type="veh_passenger" depart="1005.32" departLane="best" from="141479470#0" to="-141479492#1"/>
    <trip id="veh227" type="veh_passenger" depart="1009.77" departLane="best" from="-141313215#2" to="-1046385803"/>
    <trip id="veh228" type="veh_passenger" depart="1014.22" departLane="best" departSpeed="max" from="1165593241#0" to="-141508030#1"/>
    <trip id="veh229" type="veh_passenger" depart="1018.66" departLane="best" from="141479471#0" to="-139959764#0"/>
    <trip id="veh230" type="veh_passenger" depart="1023.11" departLane="best" departSpeed="max" from="159820218#0" to="1165570284#0"/>
    <trip id="veh232" type="veh_passenger" depart="1032.01" departLane="best" from="405101038#1" to="1096288089"/>
    <trip id="veh233" type="veh_passenger" depart="1036.46" departLane="best" from="159820188#12" to="100001035#6"/>
    <trip id="veh234" type="veh_passenger" depart="1040.91" departLane="best" from="-1096210759" to="-139959782#0"/>
    <trip id="veh235" type="veh_passenger" depart="1045.35" departLane="best" from="1165593241#9" to="212612268#0"/>
    <trip id="veh236" type="veh_passenger" depart="1049.80" departLane="best" from="141508068#1" to="-141479492#0"/>
    <trip id="veh237" type="veh_passenger" depart="1054.25" departLane="best" from="1165570284#8" to="1096253329"/>
    <trip id="veh238" type="veh_passenger" depart="1058.70" departLane="best" from="-1096199637" to="159820210#1-AddedOnRampEdge"/>
    <trip id="veh239" type="veh_passenger" depart="1063.15" departLane="best" from="48876286#7" to="-212612272#0"/>
    <trip id="veh240" type="veh_passenger" depart="1067.60" departLane="best" from="-140644729" to="-1096288058"/>
    <trip id="veh241" type="veh_passenger" depart="1072.04" departLane="best" from="-100001035#1" to="1096253329"/>
    <trip id="veh242" type="veh_passenger" depart="1076.49" departLane="best" from="-1183909461#0" to="-141508074#0"/>
    <trip id="veh243" type="veh_passenger" depart="1080.94" departLane="best" from="-141479492#2" to="141479479#4"/>
    <trip id="veh244" type="veh_passenger" depart="1085.39" departLane="best" from="-141479478#0" to="1096253369"/>
    <trip id="veh245" type="veh_passenger" depart="1089.84" departLane="best" from="-141479466#1" to="395297607#0"/>
    <trip id="veh246" type="veh_passenger" depart="1094.29" departLane="best" from="-141508058" to="139959764#3"/>
    <trip id="veh247" type="veh_passenger" depart="1098.73" departLane="best" from="139959789" to="405101033#7"/>
    <trip id="veh249" type="veh_passenger" depart="1107.63" departLane="best" from="139959772" to="212929965#1"/>
    <trip id="veh250" type="veh_passenger" depart="1112.08" departLane="best" from="159820188#14" to="-1096288053#0"/>
    <trip id="veh251" type="veh_passenger" depart="1116.53" departLane="best" from="-141479512#1" to="1166761282"/>
    <trip id="veh252" type="veh_passenger" depart="1120.98" departLane="best" from="141508065" to="-1228619558#3"/>
    <trip id="veh253" type="veh_passenger" depart="1125.42" departLane="best" from="-141479466#2" to="141479479#10"/>
    <trip id="veh254" type="veh_passenger" depart="1129.87" departLane="best" from="405101038#2" to="1165570284#11"/>
    <trip id="veh255" type="veh_passenger" depart="1134.32" departLane="best" from="-1096199635" to="1096199593"/>