<?xml version="1.0" encoding="UTF-8"?>

<!-- generated on 2024-10-19 07:28:46 by Eclipse SUMO netconvert Version 1.21.0
<netconvertConfiguration xmlns:xsi="http://www.w3.org/2001/XMLSchema-instance" xsi:noNamespaceSchemaLocation="http://sumo.dlr.de/xsd/netconvertConfiguration.xsd">

    <input>
        <type-files value="${SUMO_HOME}\data\typemap\osmNetconvert.typ.xml,${SUMO_HOME}\data\typemap\osmNetconvertAerialway.typ.xml"/>
        <osm-files value="osm_bbox.osm.xml.gz"/>
    </input>

    <output>
        <output-file value="osm.net.xml.gz"/>
        <output.street-names value="true"/>
        <output.original-names value="true"/>
        <ptstop-output value="osm_stops.add.xml"/>
        <ptline-output value="osm_ptlines.xml"/>
    </output>

    <projection>
        <proj value="+proj=merc +a=6378137 +b=6378137 +lat_ts=0.0 +lon_0=0.0 +x_0=0.0 +y_0=0 +k=1.0 +units=m +nadgrids=@null +wktext +no_defs"/>
    </projection>

    <processing>
        <geometry.remove value="true"/>
        <roundabouts.guess value="true"/>
        <lefthand value="true"/>
    </processing>

    <tls_building>
        <tls.discard-simple value="true"/>
        <tls.join value="true"/>
        <tls.guess-signals value="true"/>
        <tls.default-type value="actuated"/>
    </tls_building>

    <ramp_guessing>
        <ramps.guess value="true"/>
    </ramp_guessing>

    <junctions>
        <junctions.join value="true"/>
        <junctions.corner-detail value="5"/>
    </junctions>

    <railway>
        <railway.topology.repair value="true"/>
    </railway>

</netconvertConfiguration>
-->

<additional xmlns:xsi="http://www.w3.org/2001/XMLSchema-instance" xsi:noNamespaceSchemaLocation="http://sumo.dlr.de/xsd/additional_file.xsd">
    <busStop id="11278749494" name="Summanahalli" lane="1248258448#1_0" startPos="6.41" endPos="21.41" friendlyPos="true"/>
    <busStop id="11603221273" name="Summanahalli" lane="159820181#0_0" startPos="0.00" endPos="15.00" friendlyPos="true"/>
    <busStop id="11608103356" name="Kottigepalya" lane="1166761282_0" startPos="473.62" endPos="488.62" friendlyPos="true"/>
    <busStop id="11608103357" name="Kottigepalya" lane="1165570284#8_0" startPos="45.84" endPos="60.84" friendlyPos="true"/>
    <busStop id="11608103359" name="Summanahalli" lane="1166761282_0" startPos="0.00" endPos="15.00" friendlyPos="true"/>
    <busStop id="1719192260" name="Summanahalli" lane="159820214_0" startPos="65.76" endPos="80.76" friendlyPos="true"/>
    <busStop id="1794141124" name="Sumanahalli" lane="159820188#0_0" startPos="0.00" endPos="0.20" friendlyPos="true"/>
    <busStop id="1794144895" name="Summanahalli" lane="159820227_0" startPos="21.76" endPos="36.76" friendlyPos="true"/>
    <busStop id="308069169" name="Kottige Palya" lane="1166761288#0_0" startPos="68.09" endPos="83.09" friendlyPos="true"/>
</additional>
