<?xml version="1.0" encoding="UTF-8"?>

<!-- generated on 2024-10-19 07:35:56.372208 by osmWebWizard.py v1_21_0+0000-d7b3b481c43
<configuration>
    <net-file value="C:\Users\manut\Sumo\2024-10-19-07-35-51\osm.net.xml.gz"/>
    <output-trip-file value="C:\Users\manut\Sumo\2024-10-19-07-35-51\osm.motorcycle.trips.xml"/>
    <route-file value="C:\Users\manut\Sumo\2024-10-19-07-35-51\osm.motorcycle.rou.xml"/>
    <prefix value="motorcycle"/>
    <trip-attributes value="departLane=&quot;best&quot;"/>
    <fringe-start-attributes value="departSpeed=&quot;max&quot;"/>
    <vehicle-class value="motorcycle"/>
    <fringe-factor value="2"/>
    <vclass value="motorcycle"/>
    <via-edge-types value="highway.motorway,highway.motorway_link,highway.trunk_link,highway.primary_link,highway.secondary_link,highway.tertiary_link"/>
    <max-distance value="1200.0"/>
    <remove-loops value="True"/>
    <validate value="True"/>
    <insertion-density value="15.0"/>
</configuration>
-->

<!-- generated on 2024-10-19 07:35:56 by Eclipse SUMO duarouter Version 1.21.0
<duarouterConfiguration xmlns:xsi="http://www.w3.org/2001/XMLSchema-instance" xsi:noNamespaceSchemaLocation="http://sumo.dlr.de/xsd/duarouterConfiguration.xsd">

    <input>
        <net-file value="C:\Users\manut\Sumo\2024-10-19-07-35-51\osm.net.xml.gz"/>
        <route-files value="C:\Users\manut\Sumo\2024-10-19-07-35-51\osm.motorcycle.trips.xml"/>
    </input>

    <output>
        <output-file value="C:\Users\manut\Sumo\2024-10-19-07-35-51\osm.motorcycle.trips.xml.tmp"/>
        <alternatives-output value="NUL"/>
        <write-trips value="true"/>
    </output>

    <processing>
        <remove-loops value="true"/>
    </processing>

    <time>
        <begin value="0.0"/>
        <end value="3600.0"/>
    </time>

    <report>
        <no-warnings value="true"/>
        <ignore-errors value="true"/>
        <no-step-log value="true"/>
    </report>

</duarouterConfiguration>
-->

<routes xmlns:xsi="http://www.w3.org/2001/XMLSchema-instance" xsi:noNamespaceSchemaLocation="http://sumo.dlr.de/xsd/routes_file.xsd">
    <vType id="motorcycle_motorcycle" vClass="motorcycle"/>
    <trip id="motorcycle0" type="motorcycle_motorcycle" depart="0.00" departLane="best" from="28187939#7" to="-133358817#0"/>
    <trip id="motorcycle1" type="motorcycle_motorcycle" depart="12.16" departLane="best" from="-40678746#3" to="28187971#1"/>
    <trip id="motorcycle2" type="motorcycle_motorcycle" depart="24.31" departLane="best" from="332243839" to="28187971#1"/>
    <trip id="motorcycle3" type="motorcycle_motorcycle" depart="36.47" departLane="best" from="419769721#0" to="28086207#1"/>
    <trip id="motorcycle4" type="motorcycle_motorcycle" depart="48.63" departLane="best" from="-987157519" to="-133358817#1"/>
    <trip id="motorcycle5" type="motorcycle_motorcycle" depart="60.79" departLane="best" from="-28187971#0" to="222798632"/>
    <trip id="motorcycle6" type="motorcycle_motorcycle" depart="72.94" departLane="best" from="133358817#0" to="28187949#1"/>
    <trip id="motorcycle7" type="motorcycle_motorcycle" depart="85.10" departLane="best" from="28187949#0" to="28086263"/>
    <trip id="motorcycle8" type="motorcycle_motorcycle" depart="97.26" departLane="best" from="-28187971#1" to="-28120304#0"/>
    <trip id="motorcycle9" type="motorcycle_motorcycle" depart="109.42" departLane="best" from="-40692552#2" to="-1055868540#1"/>
    <trip id="motorcycle10" type="motorcycle_motorcycle" depart="121.57" departLane="best" from="40692556#3" to="309190293#3"/>
    <trip id="motorcycle11" type="motorcycle_motorcycle" depart="133.73" departLane="best" from="40692564" to="-28187939#1"/>
    <trip id="motorcycle12" type="motorcycle_motorcycle" depart="145.89" departLane="best" from="-661702060" to="40692561#2"/>
    <trip id="motorcycle13" type="motorcycle_motorcycle" depart="158.05" departLane="best" from="-28086263" to="-28086263"/>
    <trip id="motorcycle14" type="motorcycle_motorcycle" depart="170.20" departLane="best" from="40692569#0" to="-28187939#0"/>
    <trip id="motorcycle15" type="motorcycle_motorcycle" depart="182.36" departLane="best" from="40692556#3" to="32266318#5"/>
    <trip id="motorcycle16" type="motorcycle_motorcycle" depart="194.52" departLane="best" from="28086207#0" to="735434261"/>
    <trip id="motorcycle17" type="motorcycle_motorcycle" depart="206.68" departLane="best" from="-442048028" to="28086280"/>
    <trip id="motorcycle18" type="motorcycle_motorcycle" depart="218.83" departLane="best" from="40692561#3" to="-28187939#2"/>
    <trip id="motorcycle19" type="motorcycle_motorcycle" depart="230.99" departLane="best" from="40692569#4" to="28087303#2"/>
    <trip id="motorcycle20" type="motorcycle_motorcycle" depart="243.15" departLane="best" from="32261256#0" to="-147575153#0"/>
    <trip id="motorcycle21" type="motorcycle_motorcycle" depart="255.30" departLane="best" from="-28187979" to="40678749"/>
    <trip id="motorcycle22" type="motorcycle_motorcycle" depart="267.46" departLane="best" from="-243773618" to="309190290"/>
    <trip id="motorcycle23" type="motorcycle_motorcycle" depart="279.62" departLane="best" from="-28086303#0" to="-40678746#3"/>
    <trip id="motorcycle24" type="motorcycle_motorcycle" depart="291.78" departLane="best" from="-28187939#5" to="-419769721#2"/>
    <trip id="motorcycle25" type="motorcycle_motorcycle" depart="303.93" departLane="best" from="-419769721#4" to="28187962#1"/>
    <trip id="motorcycle27" type="motorcycle_motorcycle" depart="328.25" departLane="best" from="28187949#0" to="28187939#10"/>
    <trip id="motorcycle28" type="motorcycle_motorcycle" depart="340.41" departLane="best" from="-28187939#3" to="-32266318#5"/>
    <trip id="motorcycle29" type="motorcycle_motorcycle" depart="352.56" departLane="best" from="-28187939#11" to="-442048028"/>
    <trip id="motorcycle30" type="motorcycle_motorcycle" depart="364.72" departLane="best" from="-995160700" to="28187939#8"/>
    <trip id="motorcycle31" type="motorcycle_motorcycle" depart="376.88" departLane="best" from="28086303#0" to="309190290"/>
    <trip id="motorcycle32" type="motorcycle_motorcycle" depart="389.04" departLane="best" from="40692565#1" to="40678749"/>
    <trip id="motorcycle33" type="motorcycle_motorcycle" depart="401.19" departLane="best" from="-309190290" to="-133358817#1"/>
    <trip id="motorcycle34" type="motorcycle_motorcycle" depart="413.35" departLane="best" from="-40692556#3" to="32266318#5"/>
    <trip id="motorcycle37" type="motorcycle_motorcycle" depart="449.82" departLane="best" from="-28187949#1" to="661702060"/>
    <trip id="motorcycle38" type="motorcycle_motorcycle" depart="461.98" departLane="best" from="-419769721#5" to="1125669867#0"/>
    <trip id="motorcycle39" type="motorcycle_motorcycle" depart="474.14" departLane="best" from="32266318#5" to="-309190293#3"/>
    <trip id="motorcycle40" type="motorcycle_motorcycle" depart="486.29" departLane="best" from="28086303#1" to="-32266318#4"/>
    <trip id="motorcycle41" type="motorcycle_motorcycle" depart="498.45" departLane="best" from="28087303#3" to="419769721#1"/>
    <trip id="motorcycle42" type="motorcycle_motorcycle" depart="510.61" departLane="best" from="-661702061#0" to="-28187971#0"/>
    <trip id="motorcycle43" type="motorcycle_motorcycle" depart="522.77" departLane="best" from="995160703" to="23004450#0"/>
    <trip id="motorcycle44" type="motorcycle_motorcycle" depart="534.92" departLane="best" from="-28086207#2" to="-147575153#0"/>
    <trip id="motorcycle45" type="motorcycle_motorcycle" depart="547.08" departLane="best" from="-28086303#2" to="-28187939#4"/>
    <trip id="motorcycle46" type="motorcycle_motorcycle" depart="559.24" departLane="best" from="40692556#0" to="-735434261"/>
    <trip id="motorcycle47" type="motorcycle_motorcycle" depart="571.40" departLane="best" from="-222798628" to="-442048028"/>
    <trip id="motorcycle48" type="motorcycle_motorcycle" depart="583.55" departLane="best" from="995160703" to="243773618"/>
    <trip id="motorcycle49" type="motorcycle_motorcycle" depart="595.71" departLane="best" from="661702062" to="40692569#6"/>
    <trip id="motorcycle50" type="motorcycle_motorcycle" depart="607.87" departLane="best" from="-1109938944" to="32266318#3"/>
    <trip id="motorcycle51" type="motorcycle_motorcycle" depart="620.03" departLane="best" from="-28187979" to="28086207#1"/>
    <trip id="motorcycle52" type="motorcycle_motorcycle" depart="632.18" departLane="best" from="32266318#5" to="28187939#8"/>
    <trip id="motorcycle53" type="motorcycle_motorcycle" depart="644.34" departLane="best" from="-28086303#2" to="-995160701"/>
    <trip id="motorcycle54" type="motorcycle_motorcycle" depart="656.50" departLane="best" from="1125669867#0" to="660356744#1"/>
    <trip id="motorcycle55" type="motorcycle_motorcycle" depart="668.66" departLane="best" from="40692569#8" to="-32266318#4"/>
    <trip id="motorcycle56" type="motorcycle_motorcycle" depart="680.81" departLane="best" from="-28187939#11" to="-28187939#5"/>
    <trip id="motorcycle57" type="motorcycle_motorcycle" depart="692.97" departLane="best" from="-419769721#5" to="40692569#7"/>
    <trip id="motorcycle58" type="motorcycle_motorcycle" depart="705.13" departLane="best" from="-40692552#2" to="28187939#8"/>
    <trip id="motorcycle59" type="motorcycle_motorcycle" depart="717.28" departLane="best" from="-28187939#1" to="-28187939#0"/>
    <trip id="motorcycle60" type="motorcycle_motorcycle" depart="729.44" departLane="best" from="40633857#5" to="28086207#1"/>
    <trip id="motorcycle61" type="motorcycle_motorcycle" depart="741.60" departLane="best" from="40678749" to="243773618"/>
    <trip id="motorcycle62" type="motorcycle_motorcycle" depart="753.76" departLane="best" from="1055868540#0" to="40692557#1"/>
    <trip id="motorcycle63" type="motorcycle_motorcycle" depart="765.91" departLane="best" from="-1110191874" to="545598978"/>
    <trip id="motorcycle65" type="motorcycle_motorcycle" depart="790.23" departLane="best" from="-40692556#1" to="-147575153#3"/>
    <trip id="motorcycle67" type="motorcycle_motorcycle" depart="814.54" departLane="best" from="-28086207#1" to="-147575153#0"/>
    <trip id="motorcycle68" type="motorcycle_motorcycle" depart="826.70" departLane="best" from="222798630#1" to="40633857#5"/>
    <trip id="motorcycle69" type="motorcycle_motorcycle" depart="838.86" departLane="best" from="40678746#0" to="-28087303#2"/>
    <trip id="motorcycle70" type="motorcycle_motorcycle" depart="851.02" departLane="best" from="133358817#4" to="28086280"/>
    <trip id="motorcycle71" type="motorcycle_motorcycle" depart="863.17" departLane="best" from="32266318#5" to="40692569#8"/>
    <trip id="motorcycle72" type="motorcycle_motorcycle" depart="875.33" departLane="best" from="-987157519" to="-28187966#0"/>
    <trip id="motorcycle73" type="motorcycle_motorcycle" depart="887.49" departLane="best" from="28086207#0" to="32266318#6"/>
    <trip id="motorcycle74" type="motorcycle_motorcycle" depart="899.65" departLane="best" from="-28187962#0" to="-40692556#2"/>
    <trip id="motorcycle75" type="motorcycle_motorcycle" depart="911.80" departLane="best" from="995160701" to="28187949#1"/>
    <trip id="motorcycle76" type="motorcycle_motorcycle" depart="923.96" departLane="best" from="-1055868540#0" to="237025639#1"/>
    <trip id="motorcycle77" type="motorcycle_motorcycle" depart="936.12" departLane="best" from="-28087303#1" to="28187971#1"/>
    <trip id="motorcycle78" type="motorcycle_motorcycle" depart="948.27" departLane="best" from="-40692561#3" to="28087344#0"/>
    <trip id="motorcycle79" type="motorcycle_motorcycle" depart="960.43" departLane="best" from="-309190290" to="-28187971#0"/>
    <trip id="motorcycle80" type="motorcycle_motorcycle" depart="972.59" departLane="best" from="222798630#1" to="-28187939#5"/>
    <trip id="motorcycle81" type="motorcycle_motorcycle" depart="984.75" departLane="best" from="-309190290" to="419769721#3"/>
    <trip id="motorcycle82" type="motorcycle_motorcycle" depart="996.90" departLane="best" from="40692569#3" to="-222798630#1"/>
    <trip id="motorcycle83" type="motorcycle_motorcycle" depart="1009.06" departLane="best" from="-309190293#1" to="28187966#1"/>
    <trip id="motorcycle84" type="motorcycle_motorcycle" depart="1021.22" departLane="best" from="-28187966#1" to="-28087303#3"/>
    <trip id="motorcycle86" type="motorcycle_motorcycle" depart="1045.53" departLane="best" from="133358817#4" to="40692552#0"/>
    <trip id="motorcycle87" type="motorcycle_motorcycle" depart="1057.69" departLane="best" from="40692556#3" to="-28187939#9"/>
    <trip id="motorcycle88" type="motorcycle_motorcycle" depart="1069.85" departLane="best" from="-28086280" to="995160700"/>
    <trip id="motorcycle89" type="motorcycle_motorcycle" depart="1082.01" departLane="best" from="-987157519" to="133358817#0"/>
    <trip id="motorcycle90" type="motorcycle_motorcycle" depart="1094.16" departLane="best" from="32266318#5" to="-28187971#0"/>
    <trip id="motorcycle91" type="motorcycle_motorcycle" depart="1106.32" departLane="best" from="987157519" to="-28086280"/>
    <trip id="motorcycle92" type="motorcycle_motorcycle" depart="1118.48" departLane="best" from="-661702061#1" to="-40692561#3"/>
    <trip id="motorcycle93" type="motorcycle_motorcycle" depart="1130.63" departLane="best" from="40692569#4" to="-309190293#3"/>
    <trip id="motorcycle94" type="motorcycle_motorcycle" depart="1142.79" departLane="best" from="-28187939#9" to="1109938944"/>
    <trip id="motorcycle95" type="motorcycle_motorcycle" depart="1154.95" departLane="best" from="-987157519" to="-40678746#4"/>
    <trip id="motorcycle96" type="motorcycle_motorcycle" depart="1167.11" departLane="best" from="-1110191347" to="442049065#0"/>
    <trip id="motorcycle97" type="motorcycle_motorcycle" depart="1179.26" departLane="best" from="1055868540#1" to="40692569#6"/>
    <trip id="motorcycle98" type="motorcycle_motorcycle" depart="1191.42" departLane="best" from="28086263" to="-147575153#1"/>
    <trip id="motorcycle99" type="motorcycle_motorcycle" depart="1203.58" departLane="best" from="995160703" to="-40692565#0"/>
    <trip id="motorcycle100" type="motorcycle_motorcycle" depart="1215.74" departLane="best" from="661702062" to="442049065#1"/>
    <trip id="motorcycle101" type="motorcycle_motorcycle" depart="1227.89" departLane="best" from="40692569#1" to="-28187939#2"/>
    <trip id="motorcycle102" type="motorcycle_motorcycle" depart="1240.05" departLane="best" from="147575153#1" to="28187966#1"/>
    <trip id="motorcycle103" type="motorcycle_motorcycle" depart="1252.21" departLane="best" from="-661702061#1" to="-147575153#3"/>
    <trip id="motorcycle104" type="motorcycle_motorcycle" depart="1264.37" departLane="best" from="-442048028" to="987157519"/>
    <trip id="motorcycle105" type="motorcycle_motorcycle" depart="1276.52" departLane="best" from="-32266318#5" to="40692552#0"/>
    <trip id="motorcycle106" type="motorcycle_motorcycle" depart="1288.68" departLane="best" from="1125669867#0" to="735434261"/>
    <trip id="motorcycle107" type="motorcycle_motorcycle" depart="1300.84" departLane="best" from="-661702060" to="995160701"/>
    <trip id="motorcycle108" type="motorcycle_motorcycle" depart="1313.00" departLane="best" from="28086280" to="32266318#3"/>
    <trip id="motorcycle109" type="motorcycle_motorcycle" depart="1325.15" departLane="best" from="-28187939#1" to="40692552#0"/>
    <trip id="motorcycle110" type="motorcycle_motorcycle" depart="1337.31" departLane="best" from="661702062" to="28087303#2"/>
    <trip id="motorcycle111" type="motorcycle_motorcycle" depart="1349.47" departLane="best" from="-28086207#1" to="40633857#2"/>
    <trip id="motorcycle112" type="motorcycle_motorcycle" depart="1361.62" departLane="best" from="-147575153#3" to="28087303#3"/>
    <trip id="motorcycle113" type="motorcycle_motorcycle" depart="1373.78" departLane="best" from="-28187939#11" to="40692569#2"/>
    <trip id="motorcycle114" type="motorcycle_motorcycle" depart="1385.94" departLane="best" from="-28187939#10" to="661702061#0"/>
    <trip id="motorcycle115" type="motorcycle_motorcycle" depart="1398.10" departLane="best" from="-28086207#0" to="-28187939#8"/>
    <trip id="motorcycle116" type="motorcycle_motorcycle" depart="1410.25" departLane="best" from="28120304#0" to="28187971#1"/>
    <trip id="motorcycle117" type="motorcycle_motorcycle" depart="1422.41" departLane="best" from="-309190293#0" to="-28087303#0"/>
    <trip id="motorcycle119" type="motorcycle_motorcycle" depart="1446.73" departLane="best" from="28120304#0" to="-28187939#2"/>
    <trip id="motorcycle120" type="motorcycle_motorcycle" depart="1458.88" departLane="best" from="-735434261" to="-28087303#3"/>
    <trip id="motorcycle122" type="motorcycle_motorcycle" depart="1483.20" departLane="best" from="-28187962#1" to="-32266318#1"/>
    <trip id="motorcycle123" type="motorcycle_motorcycle" depart="1495.36" departLane="best" from="-309190293#1" to="661702060"/>
    <trip id="motorcycle124" type="motorcycle_motorcycle" depart="1507.51" departLane="best" from="-28187966#1" to="40692552#2"/>
    <trip id="motorcycle125" type="motorcycle_motorcycle" depart="1519.67" departLane="best" from="-40692557#0" to="40633857#3"/>
    <trip id="motorcycle126" type="motorcycle_motorcycle" depart="1531.83" departLane="best" from="-23004450#0" to="442049065#0"/>
    <trip id="motorcycle127" type="motorcycle_motorcycle" depart="1543.99" departLane="best" from="995160703" to="995160703"/>
    <trip id="motorcycle128" type="motorcycle_motorcycle" depart="1556.14" departLane="best" from="-23004450#0" to="28187966#0"/>
    <trip id="motorcycle130" type="motorcycle_motorcycle" depart="1580.46" departLane="best" from="40692572#1" to="40692572#1"/>
    <trip id="motorcycle131" type="motorcycle_motorcycle" depart="1592.61" departLane="best" from="-419769721#4" to="-28187939#10"/>
    <trip id="motorcycle132" type="motorcycle_motorcycle" depart="1604.77" departLane="best" from="-40692564" to="32261256#0"/>
    <trip id="motorcycle133" type="motorcycle_motorcycle" depart="1616.93" departLane="best" from="28187939#1" to="987157519"/>
    <trip id="motorcycle134" type="motorcycle_motorcycle" depart="1629.09" departLane="best" from="-28187949#1" to="-1055868540#1"/>
    <trip id="motorcycle135" type="motorcycle_motorcycle" depart="1641.24" departLane="best" from="40692561#0" to="-40692552#2"/>
    <trip id="motorcycle137" type="motorcycle_motorcycle" depart="1665.56" departLane="best" from="-28087344#1" to="28086303#3"/>
    <trip id="motorcycle138" type="motorcycle_motorcycle" depart="1677.72" departLane="best" from="-28086303#1" to="-28086303#0"/>
    <trip id="motorcycle139" type="motorcycle_motorcycle" depart="1689.87" departLane="best" from="-40678746#3" to="-28187939#0"/>
    <trip id="motorcycle140" type="motorcycle_motorcycle" depart="1702.03" departLane="best" from="32266318#1" to="-28187962#0"/>
    <trip id="motorcycle141" type="motorcycle_motorcycle" depart="1714.19" departLane="best" from="-28187939#5" to="-32266318#4"/>
    <trip id="motorcycle142" type="motorcycle_motorcycle" depart="1726.35" departLane="best" from="147575153#2" to="419769721#3"/>
    <trip id="motorcycle143" type="motorcycle_motorcycle" depart="1738.50" departLane="best" from="40692569#0" to="987157519"/>
    <trip id="motorcycle144" type="motorcycle_motorcycle" depart="1750.66" departLane="best" from="-987157519" to="-40678746#3"/>
    <trip id="motorcycle145" type="motorcycle_motorcycle" depart="1762.82" departLane="best" from="-1055868540#0" to="40678748"/>
    <trip id="motorcycle146" type="motorcycle_motorcycle" depart="1774.98" departLane="best" from="-28187939#7" to="-32266318#3"/>
    <trip id="motorcycle147" type="motorcycle_motorcycle" depart="1787.13" departLane="best" from="40633857#0" to="28086280"/>
    <trip id="motorcycle148" type="motorcycle_motorcycle" depart="1799.29" departLane="best" from="-995160700" to="-1109938944"/>
    <trip id="motorcycle150" type="motorcycle_motorcycle" depart="1823.60" departLane="best" from="419769721#2" to="28086263"/>
    <trip id="motorcycle151" type="motorcycle_motorcycle" depart="1835.76" departLane="best" from="-40692564" to="28087303#3"/>
    <trip id="motorcycle152" type="motorcycle_motorcycle" depart="1847.92" departLane="best" from="28187939#0" to="-28087303#2"/>
    <trip id="motorcycle153" type="motorcycle_motorcycle" depart="1860.08" departLane="best" from="-40692556#2" to="419769721#1"/>
    <trip id="motorcycle154" type="motorcycle_motorcycle" depart="1872.23" departLane="best" from="40692556#1" to="40692569#6"/>
    <trip id="motorcycle155" type="motorcycle_motorcycle" depart="1884.39" departLane="best" from="419769721#1" to="28187966#0"/>
    <trip id="motorcycle156" type="motorcycle_motorcycle" depart="1896.55" departLane="best" from="-1110191347" to="-28086303#0"/>
    <trip id="motorcycle158" type="motorcycle_motorcycle" depart="1920.86" departLane="best" from="661702062" to="-28187939#2"/>
    <trip id="motorcycle159" type="motorcycle_motorcycle" depart="1933.02" departLane="best" from="28187939#1" to="545598978"/>
    <trip id="motorcycle160" type="motorcycle_motorcycle" depart="1945.18" departLane="best" from="-40692564" to="800240433"/>
    <trip id="motorcycle162" type="motorcycle_motorcycle" depart="1969.49" departLane="best" from="133358817#0" to="442049065#0"/>
    <trip id="motorcycle163" type="motorcycle_motorcycle" depart="1981.65" departLane="best" from="-40692561#2" to="545598978"/>
    <trip id="motorcycle164" type="motorcycle_motorcycle" depart="1993.81" departLane="best" from="40692556#2" to="40692569#6"/>
    <trip id="motorcycle165" type="motorcycle_motorcycle" depart="2005.97" departLane="best" from="-40692552#2" to="32266318#5"/>
    <trip id="motorcycle166" type="motorcycle_motorcycle" depart="2018.12" departLane="best" from="40692552#0" to="-28086303#1"/>
    <trip id="motorcycle167" type="motorcycle_motorcycle" depart="2030.28" departLane="best" from="40692569#8" to="40692569#3"/>
    <trip id="motorcycle168" type="motorcycle_motorcycle" depart="2042.44" departLane="best" from="-28187971#1" to="40692561#0"/>
    <trip id="motorcycle169" type="motorcycle_motorcycle" depart="2054.59" departLane="best" from="133358817#0" to="-40692556#0"/>
    <trip id="motorcycle170" type="motorcycle_motorcycle" depart="2066.75" departLane="best" from="40692556#0" to="28187979"/>
    <trip id="motorcycle171" type="motorcycle_motorcycle" depart="2078.91" departLane="best" from="-1284815244" to="-28187939#9"/>
    <trip id="motorcycle172" type="motorcycle_motorcycle" depart="2091.07" departLane="best" from="-40692561#1" to="40692569#6"/>
    <trip id="motorcycle173" type="motorcycle_motorcycle" depart="2103.22" departLane="best" from="-661702061#1" to="-40678746#4"/>
    <trip id="motorcycle174" type="motorcycle_motorcycle" depart="2115.38" departLane="best" from="222798630#1" to="661702061#0"/>
    <trip id="motorcycle175" type="motorcycle_motorcycle" depart="2127.54" departLane="best" from="800240434" to="28086207#0"/>
    <trip id="motorcycle177" type="motorcycle_motorcycle" depart="2151.85" departLane="best" from="661702062" to="-28187939#5"/>
    <trip id="motorcycle178" type="motorcycle_motorcycle" depart="2164.01" departLane="best" from="-661702061#0" to="-32266318#4"/>
    <trip id="motorcycle179" type="motorcycle_motorcycle" depart="2176.17" departLane="best" from="-28086303#2" to="-995160701"/>
    <trip id="motorcycle180" type="motorcycle_motorcycle" depart="2188.33" departLane="best" from="-32266318#5" to="-40692556#2"/>
    <trip id="motorcycle181" type="motorcycle_motorcycle" depart="2200.48" departLane="best" from="28187939#0" to="23004450#0"/>
    <trip id="motorcycle182" type="motorcycle_motorcycle" depart="2212.64" departLane="best" from="-660356744#0" to="28087303#1"/>
    <trip id="motorcycle183" type="motorcycle_motorcycle" depart="2224.80" departLane="best" from="32266318#1" to="32261256#1"/>
    <trip id="motorcycle184" type="motorcycle_motorcycle" depart="2236.96" departLane="best" from="-1055868540#0" to="442049065#1"/>
    <trip id="motorcycle185" type="motorcycle_motorcycle" depart="2249.11" departLane="best" from="28086207#0" to="32266318#3"/>
    <trip id="motorcycle186" type="motorcycle_motorcycle" depart="2261.27" departLane="best" from="40633857#0" to="28187971#0"/>
    <trip id="motorcycle187" type="motorcycle_motorcycle" depart="2273.43" departLane="best" from="-419769721#3" to="-222798630#1"/>
    <trip id="motorcycle188" type="motorcycle_motorcycle" depart="2285.58" departLane="best" from="28187966#0" to="-40692561#0"/>
    <trip id="motorcycle189" type="motorcycle_motorcycle" depart="2297.74" departLane="best" from="-40692556#3" to="40692569#1"/>
    <trip id="motorcycle190" type="motorcycle_motorcycle" depart="2309.90" departLane="best" from="32266318#1" to="40692552#2"/>
    <trip id="motorcycle191" type="motorcycle_motorcycle" depart="2322.06" departLane="best" from="-40692556#2" to="-661702062"/>
    <trip id="motorcycle192" type="motorcycle_motorcycle" depart="2334.21" departLane="best" from="-661702061#1" to="-40692552#0"/>
    <trip id="motorcycle193" type="motorcycle_motorcycle" depart="2346.37" departLane="best" from="28087303#2" to="735434261"/>
    <trip id="motorcycle195" type="motorcycle_motorcycle" depart="2370.69" departLane="best" from="419769721#2" to="28187939#11"/>
    <trip id="motorcycle196" type="motorcycle_motorcycle" depart="2382.84" departLane="best" from="-40692556#0" to="28086263"/>
    <trip id="motorcycle197" type="motorcycle_motorcycle" depart="2395.00" departLane="best" from="-1055868540#0" to="40678749"/>
    <trip id="motorcycle198" type="motorcycle_motorcycle" depart="2407.16" departLane="best" from="-995160701" to="28087303#2"/>
    <trip id="motorcycle199" type="motorcycle_motorcycle" depart="2419.32" departLane="best" from="-28187949#1" to="133358817#0"/>
    <trip id="motorcycle200" type="motorcycle_motorcycle" depart="2431.47" departLane="best" from="1055868540#1" to="-28187966#0"/>
    <trip id="motorcycle201" type="motorcycle_motorcycle" depart="2443.63" departLane="best" from="133358817#4" to="419769721#2"/>
    <trip id="motorcycle202" type="motorcycle_motorcycle" depart="2455.79" departLane="best" from="40692556#1" to="-28187939#3"/>
    <trip id="motorcycle203" type="motorcycle_motorcycle" depart="2467.95" departLane="best" from="-28086207#1" to="23004450#1"/>
    <trip id="motorcycle204" type="motorcycle_motorcycle" depart="2480.10" departLane="best" from="-28187939#5" to="40692561#2"/>
    <trip id="motorcycle205" type="motorcycle_motorcycle" depart="2492.26" departLane="best" from="40692561#0" to="40633857#3"/>
    <trip id="motorcycle206" type="motorcycle_motorcycle" depart="2504.42" departLane="best" from="28187971#0" to="28187971#1"/>
    <trip id="motorcycle207" type="motorcycle_motorcycle" depart="2516.57" departLane="best" from="-28187949#1" to="-133358817#0"/>
    <trip id="motorcycle208" type="motorcycle_motorcycle" depart="2528.73" departLane="best" from="309190293#3" to="133358817#2"/>
    <trip id="motorcycle209" type="motorcycle_motorcycle" depart="2540.89" departLane="best" from="40692569#1" to="23004450#0"/>
    <trip id="motorcycle210" type="motorcycle_motorcycle" depart="2553.05" departLane="best" from="-735043803" to="28187939#5"/>
    <trip id="motorcycle211" type="motorcycle_motorcycle" depart="2565.20" departLane="best" from="-28187949#0" to="309190293#2"/>
    <trip id="motorcycle212" type="motorcycle_motorcycle" depart="2577.36" departLane="best" from="147575153#3" to="-309190293#2"/>
    <trip id="motorcycle213" type="motorcycle_motorcycle" depart="2589.52" departLane="best" from="28187962#0" to="-1055868540#1"/>
    <trip id="motorcycle214" type="motorcycle_motorcycle" depart="2601.68" departLane="best" from="40633857#2" to="40678746#4"/>
    <trip id="motorcycle215" type="motorcycle_motorcycle" depart="2613.83" departLane="best" from="-28086303#1" to="28086207#2"/>
    <trip id="motorcycle216" type="motorcycle_motorcycle" depart="2625.99" departLane="best" from="-28187939#4" to="661702060"/>
    <trip id="motorcycle217" type="motorcycle_motorcycle" depart="2638.15" departLane="best" departSpeed="max" from="237025639#0" to="-147575153#1"/>
    <trip id="motorcycle218" type="motorcycle_motorcycle" depart="2650.31" departLane="best" from="-1110191347" to="40692569#1"/>
    <trip id="motorcycle219" type="motorcycle_motorcycle" depart="2662.46" departLane="best" from="-1284815244" to="40692556#2"/>
    <trip id="motorcycle220" type="motorcycle_motorcycle" depart="2674.62" departLane="best" from="28187966#0" to="987157519"/>
    <trip id="motorcycle221" type="motorcycle_motorcycle" depart="2686.78" departLane="best" from="28120304#0" to="660356744#0"/>
    <trip id="motorcycle223" type="motorcycle_motorcycle" depart="2711.09" departLane="best" from="32266318#1" to="222798632"/>
    <trip id="motorcycle224" type="motorcycle_motorcycle" depart="2723.25" departLane="best" from="40692561#3" to="28086263"/>
    <trip id="motorcycle225" type="motorcycle_motorcycle" depart="2735.41" departLane="best" from="419769721#1" to="40633857#1"/>
    <trip id="motorcycle226" type="motorcycle_motorcycle" depart="2747.56" departLane="best" from="133358817#4" to="-32266318#3"/>
    <trip id="motorcycle227" type="motorcycle_motorcycle" depart="2759.72" departLane="best" from="-309190293#3" to="-147575153#1"/>
    <trip id="motorcycle228" type="motorcycle_motorcycle" depart="2771.88" departLane="best" from="332243839" to="-28120304#0"/>