<?xml version="1.0" encoding="UTF-8"?>

<!-- generated on 2024-10-19 07:35:55.835603 by osmWebWizard.py v1_21_0+0000-d7b3b481c43
<configuration>
    <net-file value="C:\Users\manut\Sumo\2024-10-19-07-35-51\osm.net.xml.gz"/>
    <output-trip-file value="C:\Users\manut\Sumo\2024-10-19-07-35-51\osm.bus.trips.xml"/>
    <route-file value="C:\Users\manut\Sumo\2024-10-19-07-35-51\osm.bus.rou.xml"/>
    <prefix value="bus"/>
    <trip-attributes value="departLane=&quot;best&quot;"/>
    <fringe-start-attributes value="departSpeed=&quot;max&quot;"/>
    <vehicle-class value="bus"/>
    <fringe-factor value="3"/>
    <vclass value="bus"/>
    <via-edge-types value="highway.motorway,highway.motorway_link,highway.trunk_link,highway.primary_link,highway.secondary_link,highway.tertiary_link"/>
    <min-distance value="600.0"/>
    <min-distance.fringe value="10.0"/>
    <remove-loops value="True"/>
    <validate value="True"/>
    <insertion-density value="4.0"/>
</configuration>
-->

<!-- generated on 2024-10-19 07:35:55 by Eclipse SUMO duarouter Version 1.21.0
<duarouterConfiguration xmlns:xsi="http://www.w3.org/2001/XMLSchema-instance" xsi:noNamespaceSchemaLocation="http://sumo.dlr.de/xsd/duarouterConfiguration.xsd">

    <input>
        <net-file value="C:\Users\manut\Sumo\2024-10-19-07-35-51\osm.net.xml.gz"/>
        <route-files value="C:\Users\manut\Sumo\2024-10-19-07-35-51\osm.bus.trips.xml"/>
    </input>

    <output>
        <output-file value="C:\Users\manut\Sumo\2024-10-19-07-35-51\osm.bus.trips.xml.tmp"/>
        <alternatives-output value="NUL"/>
        <write-trips value="true"/>
    </output>

    <processing>
        <remove-loops value="true"/>
    </processing>

    <time>
        <begin value="0.0"/>
        <end value="3600.0"/>
    </time>

    <report>
        <no-warnings value="true"/>
        <ignore-errors value="true"/>
        <no-step-log value="true"/>
    </report>

</duarouterConfiguration>
-->

<routes xmlns:xsi="http://www.w3.org/2001/XMLSchema-instance" xsi:noNamespaceSchemaLocation="http://sumo.dlr.de/xsd/routes_file.xsd">
    <vType id="bus_bus" vClass="bus"/>
    <trip id="bus0" type="bus_bus" depart="0.00" departLane="best" from="332243839" to="28187979"/>
    <trip id="bus1" type="bus_bus" depart="45.59" departLane="best" from="32261256#0" to="-147575153#0"/>
    <trip id="bus2" type="bus_bus" depart="91.18" departLane="best" from="-309190290" to="40678750"/>
    <trip id="bus3" type="bus_bus" depart="136.77" departLane="best" from="-28086303#0" to="-40678746#4"/>
    <trip id="bus4" type="bus_bus" depart="182.36" departLane="best" from="995160703" to="23004450#0"/>
    <trip id="bus5" type="bus_bus" depart="227.95" departLane="best" from="419769721#4" to="40692569#8"/>
    <trip id="bus6" type="bus_bus" depart="273.54" departLane="best" from="332243839" to="28086207#2"/>
    <trip id="bus7" type="bus_bus" depart="319.13" departLane="best" from="222798630#1" to="40678746#0"/>
    <trip id="bus8" type="bus_bus" depart="364.72" departLane="best" from="-995160700" to="-40678746#4"/>
    <trip id="bus9" type="bus_bus" depart="410.31" departLane="best" from="-1110191347" to="442049065#0"/>
    <trip id="bus10" type="bus_bus" depart="455.90" departLane="best" from="661702062" to="442049065#1"/>
    <trip id="bus11" type="bus_bus" depart="501.49" departLane="best" from="-1284815244" to="28086207#2"/>
    <trip id="bus12" type="bus_bus" depart="547.08" departLane="best" from="-28086207#1" to="40633857#3"/>
    <trip id="bus13" type="bus_bus" depart="592.67" departLane="best" from="-147575153#3" to="28087344#0"/>
    <trip id="bus14" type="bus_bus" depart="638.26" departLane="best" from="-309190293#1" to="-28087303#0"/>
    <trip id="bus15" type="bus_bus" depart="683.85" departLane="best" from="-987157519" to="28087344#0"/>
    <trip id="bus16" type="bus_bus" depart="729.44" departLane="best" from="-28087344#1" to="28086303#3"/>
    <trip id="bus17" type="bus_bus" depart="775.03" departLane="best" from="-1055868540#0" to="40678749"/>
    <trip id="bus18" type="bus_bus" depart="820.62" departLane="best" from="419769721#2" to="28086263"/>
    <trip id="bus19" type="bus_bus" depart="866.21" departLane="best" from="133358817#0" to="40633857#0"/>
    <trip id="bus20" type="bus_bus" depart="911.80" departLane="best" from="-661702061#1" to="-40678746#4"/>
    <trip id="bus21" type="bus_bus" depart="957.39" departLane="best" from="-660356744#1" to="28087303#2"/>
    <trip id="bus22" type="bus_bus" depart="1002.98" departLane="best" from="-1055868540#0" to="442049065#1"/>
    <trip id="bus23" type="bus_bus" depart="1048.57" departLane="best" from="-1055868540#0" to="40678749"/>
    <trip id="bus24" type="bus_bus" depart="1094.16" departLane="best" from="-995160703" to="28087303#3"/>
    <trip id="bus25" type="bus_bus" depart="1139.75" departLane="best" from="40692561#1" to="40633857#4"/>
    <trip id="bus26" type="bus_bus" depart="1185.34" departLane="best" from="-40678746#3" to="40692552#2"/>
    <trip id="bus27" type="bus_bus" depart="1230.93" departLane="best" from="-987157519" to="419769721#3"/>
    <trip id="bus28" type="bus_bus" depart="1276.52" departLane="best" from="28087303#3" to="309190293#3"/>
    <trip id="bus29" type="bus_bus" depart="1322.11" departLane="best" from="-987157519" to="40633857#3"/>
    <trip id="bus30" type="bus_bus" depart="1367.70" departLane="best" from="133358817#2" to="-28087303#2"/>
    <trip id="bus31" type="bus_bus" depart="1413.29" departLane="best" from="-147575153#1" to="-442048028"/>
    <trip id="bus32" type="bus_bus" depart="1458.88" departLane="best" from="309190293#3" to="40678746#4"/>
    <trip id="bus33" type="bus_bus" depart="1504.47" departLane="best" from="32266318#1" to="23004450#0"/>
    <trip id="bus34" type="bus_bus" depart="1550.06" departLane="best" from="-28086303#0" to="40678749"/>
    <trip id="bus35" type="bus_bus" depart="1595.65" departLane="best" from="-995160701" to="-419769721#4"/>
    <trip id="bus36" type="bus_bus" depart="1641.24" departLane="best" from="32261256#1" to="-995160703"/>
    <trip id="bus37" type="bus_bus" depart="1686.83" departLane="best" from="1055868540#0" to="442049065#0"/>
    <trip id="bus38" type="bus_bus" depart="1732.42" departLane="best" from="309190293#3" to="-40678746#3"/>
    <trip id="bus39" type="bus_bus" depart="1778.01" departLane="best" from="-147575153#3" to="40633857#5"/>
    <trip id="bus40" type="bus_bus" depart="1823.60" departLane="best" from="28087303#2" to="133358817#2"/>
    <trip id="bus41" type="bus_bus" depart="1869.19" departLane="best" from="32266318#1" to="-28087303#1"/>
    <trip id="bus42" type="bus_bus" depart="1914.78" departLane="best" from="28086207#0" to="40678746#0"/>
    <trip id="bus43" type="bus_bus" depart="1960.38" departLane="best" from="-40678749" to="-28086303#0"/>
    <trip id="bus44" type="bus_bus" depart="2005.97" departLane="best" from="735434261" to="28086303#0"/>
    <trip id="bus45" type="bus_bus" depart="2051.56" departLane="best" from="309190293#2" to="-28087303#2"/>
    <trip id="bus46" type="bus_bus" depart="2097.15" departLane="best" from="40692569#8" to="28087303#1"/>
    <trip id="bus47" type="bus_bus" depart="2142.74" departLane="best" from="995160701" to="-28087303#0"/>
    <trip id="bus48" type="bus_bus" depart="2188.33" departLane="best" from="309190293#0" to="442049065#1"/>
    <trip id="bus49" type="bus_bus" depart="2233.92" departLane="best" from="147575136" to="40633857#5"/>
    <trip id="bus50" type="bus_bus" depart="2279.51" departLane="best" from="28087303#3" to="28187939#8"/>
    <trip id="bus51" type="bus_bus" depart="2325.10" departLane="best" from="-28187939#9" to="-419769721#2"/>
    <trip id="bus52" type="bus_bus" depart="2370.69" departLane="best" from="28086263" to="442049065#1"/>
    <trip id="bus53" type="bus_bus" depart="2416.28" departLane="best" from="133358817#1" to="-28087303#0"/>
    <trip id="bus54" type="bus_bus" depart="2461.87" departLane="best" from="32266318#1" to="23004450#0"/>
    <trip id="bus55" type="bus_bus" depart="2507.46" departLane="best" from="-40678746#3" to="40692565#0"/>
    <trip id="bus56" type="bus_bus" depart="2553.05" departLane="best" from="28087303#3" to="995160703"/>
    <trip id="bus57" type="bus_bus" depart="2598.64" departLane="best" from="-28087344#1" to="40692569#8"/>
    <trip id="bus58" type="bus_bus" depart="2644.23" departLane="best" from="237025639#2" to="442049065#0"/>
    <trip id="bus59" type="bus_bus" depart="2689.82" departLane="best" from="32266318#3" to="40678746#0"/>
    <trip id="bus60" type="bus_bus" depart="2735.41" departLane="best" from="332243839" to="995160703"/>
    <trip id="bus61" type="bus_bus" depart="2781.00" departLane="best" from="40633857#2" to="-995160703"/>
    <trip id="bus62" type="bus_bus" depart="2826.59" departLane="best" from="309190293#1" to="419769721#2"/>
    <trip id="bus63" type="bus_bus" depart="2872.18" departLane="best" from="-28187900" to="28086207#0"/>
    <trip id="bus64" type="bus_bus" depart="2917.77" departLane="best" from="-309190293#2" to="419769721#5"/>
    <trip id="bus65" type="bus_bus" depart="2963.36" departLane="best" from="419769721#2" to="28187979"/>
    <trip id="bus66" type="bus_bus" depart="3008.95" departLane="best" from="-40678746#4" to="28086303#3"/>
    <trip id="bus67" type="bus_bus" depart="3054.54" departLane="best" from="-309190290" to="40633857#2"/>
    <trip id="bus68" type="bus_bus" depart="3100.13" departLane="best" from="-28187939#11" to="419769721#3"/>
    <trip id="bus69" type="bus_bus" depart="3145.72" departLane="best" from="28086303#1" to="419769721#5"/>
    <trip id="bus70" type="bus_bus" depart="3191.31" departLane="best" from="-40692561#2" to="419769721#4"/>
    <trip id="bus71" type="bus_bus" depart="3236.90" departLane="best" from="-735434261" to="-28086280"/>
    <trip id="bus72" type="bus_bus" depart="3282.49" departLane="best" from="-419769721#2" to="661702061#0"/>
    <trip id="bus73" type="bus_bus" depart="3328.08" departLane="best" from="-28187939#9" to="-28087303#1"/>
    <trip id="bus74" type="bus_bus" depart="3373.67" departLane="best" from="-28087303#2" to="28086303#3"/>
    <trip id="bus75" type="bus_bus" depart="3419.26" departLane="best" from="222798630#1" to="40678746#4"/>
    <trip id="bus76" type="bus_bus" depart="3464.85" departLane="best" from="40633857#1" to="133358817#4"/>
    <trip id="bus77" type="bus_bus" depart="3510.44" departLane="best" from="237025639#1" to="1284815244"/>
    <trip id="bus78" type="bus_bus" depart="3556.03" departLane="best" from="-222798628" to="-40678746#3"/>
</routes>
