<?xml version="1.0" encoding="UTF-8"?>

<!-- generated on 2024-10-19 07:31:53.446022 by osmWebWizard.py v1_21_0+0000-d7b3b481c43
<configuration>
    <net-file value="C:\Users\manut\Sumo\2024-10-19-07-31-48\osm.net.xml.gz"/>
    <ptlines-file value="C:\Users\manut\Sumo\2024-10-19-07-31-48\osm_ptlines.xml"/>
    <ptstops-file value="C:\Users\manut\Sumo\2024-10-19-07-31-48\osm_stops.add.xml"/>
    <output-file value="C:\Users\manut\Sumo\2024-10-19-07-31-48\osm_pt.rou.xml"/>
    <stopinfos-file value="C:\Users\manut\Sumo\2024-10-19-07-31-48\stopinfos.xml"/>
    <routes-file value="C:\Users\manut\Sumo\2024-10-19-07-31-48\vehroutes.xml"/>
    <trips-file value="C:\Users\manut\Sumo\2024-10-19-07-31-48\trips.trips.xml"/>
    <min-stops value="0"/>
    <extend-to-fringe value="True"/>
    <random-begin value="True"/>
    <seed value="42"/>
    <ignore-errors value="True"/>
    <vtype-prefix value="pt_"/>
    <verbose value="True"/>
</configuration>
-->

<routes xmlns:xsi="http://www.w3.org/2001/XMLSchema-instance" xsi:noNamespaceSchemaLocation="http://sumo.dlr.de/xsd/routes_file.xsd">
    <vType id="pt_bus" vClass="bus"/>
    <vType id="pt_tram" vClass="tram"/>
    <vType id="pt_train" vClass="rail"/>
    <vType id="pt_subway" vClass="subway"/>
    <vType id="pt_light_rail" vClass="rail_urban"/>
    <vType id="pt_monorail" vClass="rail_urban"/>
    <vType id="pt_trolleybus" vClass="bus"/>
    <vType id="pt_minibus" vClass="bus"/>
    <vType id="pt_share_taxi" vClass="taxi"/>
    <vType id="pt_aerialway" vClass="cable_car" length="2.5" width="2" personCapacity="4"/>
    <vType id="pt_ferry" vClass="ship"/>
    <route id="pt_subway_Green:0" color="0,153,51" edges="607901300" >
        <stop busStop="5760198626" duration="20" until="52.0"/> <!-- Goraguntepalya -->
        <stop busStop="5760198625" duration="20" until="126.0"/> <!-- Peenya -->
    </route>
    <route id="pt_subway_Green:1" color="0,153,51" edges="-549256489" >
        <stop busStop="-3379412454" duration="20" until="43.0"/> <!-- Peenya -->
        <stop busStop="-668972579" duration="20" until="117.0"/> <!-- Goraguntepalya -->
    </route>
    <route id="pt_subway_Green:2" color="0,153,51" edges="607901300" >
        <stop busStop="5760198626" duration="20" until="54.0"/> <!-- Goraguntepalya -->
        <stop busStop="5760198625" duration="20" until="128.0"/> <!-- Peenya -->
    </route>
    <route id="pt_subway_Green:3" color="0,153,51" edges="-549256489" >
        <stop busStop="-3379412454" duration="20" until="43.0"/> <!-- Peenya -->
        <stop busStop="-668972579" duration="20" until="117.0"/> <!-- Goraguntepalya -->
    </route>
    <flow id="pt_subway_Green:0" type="pt_subway" route="pt_subway_Green:0" begin="15.0" end="3615.0" period="300" line="Green:0" >
        <param key="name" value="Green Line (Silk Institute -&gt; Peenya Industry)"/>
        <param key="completeness" value="0.08"/>
    </flow>
    <flow id="pt_subway_Green:1" type="pt_subway" route="pt_subway_Green:1" begin="133.0" end="3733.0" period="300" line="Green:1" >
        <param key="name" value="Green Line (Peenya Industry -&gt; Silk Institute)"/>
        <param key="completeness" value="0.08"/>
    </flow>
    <flow id="pt_subway_Green:2" type="pt_subway" route="pt_subway_Green:2" begin="165.0" end="3765.0" period="600" line="Green:2" >
        <param key="name" value="Green Line (Silk Institute -&gt; Nagasandra)"/>
        <param key="completeness" value="0.07"/>
    </flow>
    <flow id="pt_subway_Green:3" type="pt_subway" route="pt_subway_Green:3" begin="383.0" end="3983.0" period="600" line="Green:3" >
        <param key="name" value="Green Line (Nagasandra -&gt; Silk Institute)"/>
        <param key="completeness" value="0.07"/>
    </flow>
</routes>
