<?xml version="1.0" encoding="UTF-8"?>

<!-- generated on 2024-10-19 07:31:53.025288 by $Id: ptlines2flows.py v1_3_1+0313-ccb31df3eb jakob.erdmann@dlr.de 2019-09-02 13:26:32 +0200 $ v1_21_0+0000-d7b3b481c43
<configuration>
    <net-file value="C:\Users\manut\Sumo\2024-10-19-07-31-48\osm.net.xml.gz"/>
    <ptlines-file value="C:\Users\manut\Sumo\2024-10-19-07-31-48\osm_ptlines.xml"/>
    <ptstops-file value="C:\Users\manut\Sumo\2024-10-19-07-31-48\osm_stops.add.xml"/>
    <output-file value="C:\Users\manut\Sumo\2024-10-19-07-31-48\osm_pt.rou.xml"/>
    <stopinfos-file value="C:\Users\manut\Sumo\2024-10-19-07-31-48\stopinfos.xml"/>
    <routes-file value="C:\Users\manut\Sumo\2024-10-19-07-31-48\vehroutes.xml"/>
    <trips-file value="C:\Users\manut\Sumo\2024-10-19-07-31-48\trips.trips.xml"/>
    <min-stops value="0"/>
    <extend-to-fringe value="True"/>
    <random-begin value="True"/>
    <seed value="42"/>
    <ignore-errors value="True"/>
    <vtype-prefix value="pt_"/>
    <verbose value="True"/>
</configuration>
-->

<routes xmlns:xsi="http://www.w3.org/2001/XMLSchema-instance" xsi:noNamespaceSchemaLocation="http://sumo.dlr.de/xsd/routes_file.xsd">
    <vType id="pt_bus" vClass="bus" speedFactor="0.95"/>
    <vType id="pt_tram" vClass="tram" speedFactor="1.0"/>
    <vType id="pt_train" vClass="rail"/>
    <vType id="pt_subway" vClass="subway"/>
    <vType id="pt_light_rail" vClass="rail_urban"/>
    <vType id="pt_monorail" vClass="rail_urban"/>
    <vType id="pt_trolleybus" vClass="bus" speedFactor="0.95"/>
    <vType id="pt_minibus" vClass="bus" speedFactor="0.95"/>
    <vType id="pt_share_taxi" vClass="taxi" speedFactor="0.95"/>
    <vType id="pt_aerialway" vClass="cable_car" length="2.5" width="2" personCapacity="4"/>
    <vType id="pt_ferry" vClass="ship"/>
    <trip id="0_subway_Green:0" type="pt_subway" depart="15.0" departLane="best" from="607901300" to="607901300">
        <stop busStop="5760198626" duration="30"/>  <!-- Goraguntepalya -->
        <stop busStop="5760198625" duration="30"/>  <!-- Peenya -->
    </trip>
    <trip id="1_subway_Green:1" type="pt_subway" depart="133.0" departLane="best" from="-549256489" to="-549256489">
        <stop busStop="-3379412454" duration="30"/>  <!-- Peenya -->
        <stop busStop="-668972579" duration="30"/>  <!-- Goraguntepalya -->
    </trip>
    <trip id="2_subway_Green:2" type="pt_subway" depart="165.0" departLane="best" from="607901300" to="607901300">
        <stop busStop="5760198626" duration="30"/>  <!-- Goraguntepalya -->
        <stop busStop="5760198625" duration="30"/>  <!-- Peenya -->
    </trip>
    <trip id="3_subway_Green:3" type="pt_subway" depart="383.0" departLane="best" from="-549256489" to="-549256489">
        <stop busStop="-3379412454" duration="30"/>  <!-- Peenya -->
        <stop busStop="-668972579" duration="30"/>  <!-- Goraguntepalya -->
    </trip>
</routes>
