<?xml version="1.0" encoding="UTF-8"?>

<!-- generated on 2024-10-19 07:30:41.439404 by osmWebWizard.py v1_21_0+0000-d7b3b481c43
<configuration>
    <net-file value="C:\Users\manut\Sumo\2024-10-19-07-30-36\osm.net.xml.gz"/>
    <ptlines-file value="C:\Users\manut\Sumo\2024-10-19-07-30-36\osm_ptlines.xml"/>
    <ptstops-file value="C:\Users\manut\Sumo\2024-10-19-07-30-36\osm_stops.add.xml"/>
    <output-file value="C:\Users\manut\Sumo\2024-10-19-07-30-36\osm_pt.rou.xml"/>
    <stopinfos-file value="C:\Users\manut\Sumo\2024-10-19-07-30-36\stopinfos.xml"/>
    <routes-file value="C:\Users\manut\Sumo\2024-10-19-07-30-36\vehroutes.xml"/>
    <trips-file value="C:\Users\manut\Sumo\2024-10-19-07-30-36\trips.trips.xml"/>
    <min-stops value="0"/>
    <extend-to-fringe value="True"/>
    <random-begin value="True"/>
    <seed value="42"/>
    <ignore-errors value="True"/>
    <vtype-prefix value="pt_"/>
    <verbose value="True"/>
</configuration>
-->

<routes xmlns:xsi="http://www.w3.org/2001/XMLSchema-instance" xsi:noNamespaceSchemaLocation="http://sumo.dlr.de/xsd/routes_file.xsd">
    <vType id="pt_bus" vClass="bus"/>
    <vType id="pt_tram" vClass="tram"/>
    <vType id="pt_train" vClass="rail"/>
    <vType id="pt_subway" vClass="subway"/>
    <vType id="pt_light_rail" vClass="rail_urban"/>
    <vType id="pt_monorail" vClass="rail_urban"/>
    <vType id="pt_trolleybus" vClass="bus"/>
    <vType id="pt_minibus" vClass="bus"/>
    <vType id="pt_share_taxi" vClass="taxi"/>
    <vType id="pt_aerialway" vClass="cable_car" length="2.5" width="2" personCapacity="4"/>
    <vType id="pt_ferry" vClass="ship"/>
    <route id="pt_subway_Purple:0" color="229,66,222" edges="607901236 607901234" >
        <stop busStop="10761647016" duration="20" until="70.0"/> <!-- Krishnarajapura -->
    </route>
    <route id="pt_subway_Purple:1" color="229,66,222" edges="144106294" >
        <stop busStop="4548694631" duration="20" until="43.0"/> <!-- Krishnarajapura -->
    </route>
    <route id="pt_subway_Purple:2" color="229,66,222" edges="144106294" >
        <stop busStop="4548694631" duration="20" until="31.0"/> <!-- Krishnarajapura -->
    </route>
    <route id="pt_subway_Purple:3" color="229,66,222" edges="607901236 607901234" >
        <stop busStop="10761647016" duration="20" until="72.0"/> <!-- Krishnarajapura -->
    </route>
    <flow id="pt_subway_Purple:0" type="pt_subway" route="pt_subway_Purple:0" begin="15.0" end="3615.0" period="600" line="Purple:0" >
        <param key="name" value="Purple Line (Mysuru Road → Pattandur Agrahara)"/>
        <param key="completeness" value="0.04"/>
    </flow>
    <flow id="pt_subway_Purple:1" type="pt_subway" route="pt_subway_Purple:1" begin="133.0" end="3733.0" period="600" line="Purple:1" >
        <param key="name" value="Purple Line (Pattandur Agrahara → Mysuru Road)"/>
        <param key="completeness" value="0.04"/>
    </flow>
    <flow id="pt_subway_Purple:2" type="pt_subway" route="pt_subway_Purple:2" begin="165.0" end="3765.0" period="600" line="Purple:2" >
        <param key="name" value="Purple Line (Whitefield (Kadugodi) → Challaghatta)"/>
        <param key="completeness" value="0.03"/>
    </flow>
    <flow id="pt_subway_Purple:3" type="pt_subway" route="pt_subway_Purple:3" begin="383.0" end="3983.0" period="600" line="Purple:3" >
        <param key="name" value="Purple Line (Challaghatta → Whitefield (Kadugodi))"/>
        <param key="completeness" value="0.03"/>
    </flow>
</routes>
