<?xml version="1.0" encoding="UTF-8"?>

<!-- generated on 2024-10-19 07:30:40 by Eclipse SUMO netconvert Version 1.21.0
<netconvertConfiguration xmlns:xsi="http://www.w3.org/2001/XMLSchema-instance" xsi:noNamespaceSchemaLocation="http://sumo.dlr.de/xsd/netconvertConfiguration.xsd">

    <input>
        <type-files value="${SUMO_HOME}\data\typemap\osmNetconvert.typ.xml,${SUMO_HOME}\data\typemap\osmNetconvertAerialway.typ.xml"/>
        <osm-files value="osm_bbox.osm.xml.gz"/>
    </input>

    <output>
        <output-file value="osm.net.xml.gz"/>
        <output.street-names value="true"/>
        <output.original-names value="true"/>
        <ptstop-output value="osm_stops.add.xml"/>
        <ptline-output value="osm_ptlines.xml"/>
    </output>

    <projection>
        <proj value="+proj=merc +a=6378137 +b=6378137 +lat_ts=0.0 +lon_0=0.0 +x_0=0.0 +y_0=0 +k=1.0 +units=m +nadgrids=@null +wktext +no_defs"/>
    </projection>

    <processing>
        <geometry.remove value="true"/>
        <roundabouts.guess value="true"/>
        <lefthand value="true"/>
    </processing>

    <tls_building>
        <tls.discard-simple value="true"/>
        <tls.join value="true"/>
        <tls.guess-signals value="true"/>
        <tls.default-type value="actuated"/>
    </tls_building>

    <ramp_guessing>
        <ramps.guess value="true"/>
    </ramp_guessing>

    <junctions>
        <junctions.join value="true"/>
        <junctions.corner-detail value="5"/>
    </junctions>

    <railway>
        <railway.topology.repair value="true"/>
    </railway>

</netconvertConfiguration>
-->

<additional xmlns:xsi="http://www.w3.org/2001/XMLSchema-instance" xsi:noNamespaceSchemaLocation="http://sumo.dlr.de/xsd/additional_file.xsd">
    <busStop id="-4548694631" name="Krishnarajapura" lane="-144106294_0" startPos="297.49" endPos="497.49" friendlyPos="true">
        <access lane="-1315288639_0" pos="120.24" length="19.44" friendlyPos="1"/>
        <access lane="-695598406_0" pos="0.00" length="65.53" friendlyPos="1"/>
        <access lane="1246080024_0" pos="208.74" length="13.76" friendlyPos="1"/>
        <access lane="1315288639_0" pos="47.89" length="24.24" friendlyPos="1"/>
        <access lane="695598406_0" pos="64.26" length="62.32" friendlyPos="1"/>
    </busStop>
    <busStop id="10761647016" name="Krishnarajapura" lane="607901234_0" startPos="20.64" endPos="220.64" friendlyPos="true" lines="Purple">
        <access lane="-1315288639_0" pos="128.17" length="28.52" friendlyPos="1"/>
        <access lane="-695598406_0" pos="0.00" length="66.96" friendlyPos="1"/>
        <access lane="1246080024_0" pos="200.74" length="4.88" friendlyPos="1"/>
        <access lane="1315288639_0" pos="39.96" length="33.32" friendlyPos="1"/>
        <access lane="695598406_0" pos="64.26" length="64.64" friendlyPos="1"/>
    </busStop>
    <busStop id="4548694631" name="Krishnarajapura" lane="144106294_0" startPos="12.63" endPos="212.63" friendlyPos="true">
        <access lane="-1315288639_0" pos="120.24" length="19.44" friendlyPos="1"/>
        <access lane="-695598406_0" pos="0.00" length="65.53" friendlyPos="1"/>
        <access lane="1246080024_0" pos="208.74" length="13.76" friendlyPos="1"/>
        <access lane="1315288639_0" pos="47.89" length="24.24" friendlyPos="1"/>
        <access lane="695598406_0" pos="64.26" length="62.32" friendlyPos="1"/>
    </busStop>
</additional>
